 WAVEWATCH III 19680606 010000 -0.100E+04  0.154E+06 156 -0.100E+04  0.100E+04   3 .dpt  0.0100 m          1 1 (1X,17I7)  -999
        -999        -999        -999        -999        -999        -999        -999        -999        -999        -999        -999        -999        -999        -999        -999        -999        -999        -999        -999        -999        -999        -999        -999        -999        -999        -999        -999        -999        -999        -999        -999        -999        -999        -999        -999        -999        -999        -999        -999        -999        -999        -999        -999        -999        -999        -999        -999        -999        -999        -999        -999        -999        -999        -999        -999        -999        -999        -999        -999        -999        -999        -999        -999        -999        -999        -999        -999        -999        -999        -999        -999        -999        -999        -999        -999        -999        -999        -999        -999        -999        -999        -999        -999        -999        -999        -999        -999        -999        -999        -999        -999        -999        -999        -999        -999        -999        -999        -999        -999        -999        -999        -999        -999        -999        -999        -999        -999        -999        -999        -999        -999        -999        -999        -999        -999        -999        -999        -999        -999        -999        -999        -999        -999        -999        -999        -999        -999        -999        -999        -999        -999        -999        -999        -999        -999        -999        -999        -999        -999        -999        -999        -999        -999        -999        -999        -999        -999        -999        -999        -999        -999        -999        -999        -999        -999        -999
        -999      100000      100000      100000      100000      100000      100000      100000      100000      100000      100000      100000      100000      100000      100000      100000      100000      100000      100000      100000      100000      100000      100000      100000      100000      100000      100000      100000      100000      100000      100000      100000      100000      100000      100000      100000      100000      100000      100000      100000      100000      100000      100000      100000      100000      100000      100000      100000      100000      100000      100000      100000      100000      100000      100000      100000      100000      100000      100000      100000      100000      100000      100000      100000      100000      100000      100000      100000      100000      100000      100000      100000      100000      100000      100000      100000      100000      100000      100000      100000      100000      100000      100000      100000      100000      100000      100000      100000      100000      100000      100000      100000      100000      100000      100000      100000      100000      100000      100000      100000      100000      100000      100000      100000      100000      100000      100000      100000      100000      100000      100000      100000      100000      100000      100000      100000      100000      100000      100000      100000      100000      100000      100000      100000      100000      100000      100000      100000      100000      100000      100000      100000      100000      100000      100000      100000      100000      100000      100000      100000      100000      100000      100000      100000      100000      100000      100000      100000      100000      100000      100000      100000      100000      100000      100000        -999
        -999        -999        -999        -999        -999        -999        -999        -999        -999        -999        -999        -999        -999        -999        -999        -999        -999        -999        -999        -999        -999        -999        -999        -999        -999        -999        -999        -999        -999        -999        -999        -999        -999        -999        -999        -999        -999        -999        -999        -999        -999        -999        -999        -999        -999        -999        -999        -999        -999        -999        -999        -999        -999        -999        -999        -999        -999        -999        -999        -999        -999        -999        -999        -999        -999        -999        -999        -999        -999        -999        -999        -999        -999        -999        -999        -999        -999        -999        -999        -999        -999        -999        -999        -999        -999        -999        -999        -999        -999        -999        -999        -999        -999        -999        -999        -999        -999        -999        -999        -999        -999        -999        -999        -999        -999        -999        -999        -999        -999        -999        -999        -999        -999        -999        -999        -999        -999        -999        -999        -999        -999        -999        -999        -999        -999        -999        -999        -999        -999        -999        -999        -999        -999        -999        -999        -999        -999        -999        -999        -999        -999        -999        -999        -999        -999        -999        -999        -999        -999        -999        -999        -999        -999        -999        -999        -999
