
                  *** WAVEWATCH III Field output postp. ***   
               ===============================================

  Comment character is '$'

  Grid name : 1-D parameterized ice test    

  Fields in file : 
 --------------------------
      Water depth         
      Ice concentration   
      Wave height         
      Mean wave dir. a1b1 

  Output time data : 
 --------------------------------------------------
      First time         : 1968/06/06 00:00:00 UTC
      Interval           :            01:00:00    
      Number of requests :     99
            Fields   : Water depth         
                       Water level         
                       Wave height         

  Output type  3 :
 --------------------------------------------------
      Transfer files

      X range          :     1  156
      Y range          :     1    3
      Layout indicator :     1
      Format indicator :     1

  Requested output fields : 
 --------------------------------------------------
      Water depth            
      Water level           *** NOT AVAILABLE ***
      Wave height            


  Generating files 
 --------------------------------------------------
      Files for 1968/06/06 00:00:00 UTC
      Files for 1968/06/06 01:00:00 UTC
      Files for 1968/06/06 02:00:00 UTC
      Files for 1968/06/06 03:00:00 UTC
      Files for 1968/06/06 04:00:00 UTC
      Files for 1968/06/06 05:00:00 UTC
      Files for 1968/06/06 06:00:00 UTC
      Files for 1968/06/06 07:00:00 UTC
      Files for 1968/06/06 08:00:00 UTC
      Files for 1968/06/06 09:00:00 UTC
      Files for 1968/06/06 10:00:00 UTC
      Files for 1968/06/06 11:00:00 UTC
      Files for 1968/06/06 12:00:00 UTC

      End of file reached 


  End of program 
 =========================================
         WAVEWATCH III Field output 

