
                 *** WAVEWATCH III  Input pre-processing ***  
               ===============================================

  Comment character is '$'

  Grid name : 1-D parameterized ice test    


  Description of inputs
 --------------------------------------------------
       Input type        : ice         
       Format type       : pre-processed file  

       Input grid dim.   :  156       3
       X range           :   -1.00  154.00 (km)
       Y range           :   -1.00    1.00 (km)


  Preprocessing data
 --------------------------------------------------

           Data file :
          ---------------------------------------
           Input grid dim.   :  156       3
           Layout indicator  :    1
           Format indicator  :    2
           Format for time   : (I10,1x,I10)                    
           Format for data   : (1000(F6.2))                    
           Unit number       : 2345
           File name         : ../input_IC5_M1/icecon.txt                                       

       Opening input data file .....

       Opening output data file .....


  Processing data
 --------------------------------------------------
           Time : 1968/06/06 00:00:00 UTC
                  reading ....
                  writing ....


  End of program 
 =========================================
         WAVEWATCH III Input preprocessing 

