
                   *** WAVEWATCH III Grid preprocessor ***    
               ===============================================

  Comment character is '$'

  Grid name : 1-D parameterized ice test    


  Spectral discretization : 
 --------------------------------------------------
       Number of directions        :  24
       Directional increment (deg.):  15.0
       First direction       (deg.):   0.0
       Number of frequencies       :   3
       Frequency range        (Hz) :   0.0800-0.1250
       Increment factor            :   1.250


  Model definition :
 --------------------------------------------------
       Dry run (no calculations)   :  ---/NO
       Propagation in X-direction  :  YES/--
       Propagation in Y-direction  :  ---/NO
       Refraction                  :  ---/NO
       Current-induced k-shift     :  ---/NO
       Source term calc. and int.  :  YES/--


  Time steps : 
 --------------------------------------------------
       Maximum global time step      (s) :   60.00
       Maximum CFL time step X-Y     (s) :   60.00
       Maximum CFL time step k-theta (s) :   60.00
       Minimum source term time step (s) :   60.00

  Preprocessing namelists ...
  Preprocessing namelists finished.


  Stresses (T&C 96)
 --------------------------------------------------


  Linear input not defined.


  Wind input not defined.


  Nonlinear interactions not defined.


  Dissipation not defined.


  Bottom friction not defined.


  Surf breaking not defined.


  Triad interactions not defined.


  Bottom scattering not defined.


  Dissipation via ice parameters (SIC5).
 --------------------------------------------------
    Sice will be calculated using effective medium models.
        Required field input: ice parameters 1, 2, 3 and 4.


  Propagation scheme : 
 --------------------------------------------------
       Type of scheme (structured) : 3rd order UQ + GSE averaging  
                                     (default values)  
       CFLmax depth refraction     :    0.700
       Averaging area factor Cg    :    1.50
       Averaging area factor theta :    1.50


  Ice scattering not defined.


  Effective medium ice model (SIC5) (user def. values) :
 --------------------------------------------------
       Min. Ice shear modulus G     :    0.1E+01
       Min. Wave period T           :    0.00
       Max. Wavenumber Ratio (Ko/Kr):    0.1E+10
       Max. Attenu. Rate (Ki)       :    0.1E+03
       Min. Water depth (d)         :    0.
       Max. # of Newton Iter.       :  100.
       Use Rand. Kick               :    0.
       Excluded Imag. Corridor      :    0.0025
       Selected ice model           :  EFS


  Spectral output on full grid (default values) :  
 --------------------------------------------------
       Second order pressure at K=0:   0   1   3
       Spectrum of Uss             :   0   1   3
       Frequency spectrum          :   0   1   3
       Partions of Uss             :   0   1
       Partition wavenumber # 1   :  0.063

  Miscellaneous (default values) :  
 --------------------------------------------------
       Ice concentration cut-offs  :    0.50  0.50
       Wind input reduction factor in presence of 
         ice :  1.00
         (0.0==> no reduction and 1.0==> no wind
         input with 100% ice cover)
       Space-time extremes DX-Y set to default 1000 m
       Space-time extremes Dt set to default 1200 s
       Compression of track output  :   T

    Dynamic source term integration scheme :
       Xp                      (-) :    0.150
       Xr                      (-) :    0.100
       Xfilt                   (-) :    0.050

    Wave field partitioning :
       Levels                  (-) :  100
       Minimum wave height     (m) :    0.050
       Wind area multiplier    (-) :    1.700
       Cut-off wind sea fract. (-) :    0.333
       Combine wind seas           :  YES/--
       Number of swells in fld out :    5
       Partitioning method         :  WW3 default                                  

    Miche-style limiting wave height :
       Hs,max/d factor         (-) :    1.600
       Hrms,max/d factor       (-) :    1.131
       Limiter activated           :  ---/NO

    Calendar type                  :  standard


  Equivalent namelists ...

  &PRO3 CFLTM = 0.70, WDTHCG = 1.50, WDTHTH = 1.50 /
  &UNST UGBCCFL =  T, UGOBCAUTO =  T, UGOBCDEPTH = -10.000, UGOBCFILE=unset,
,  EXPFSN =  T,EXPFSPSI =  F,  EXPFSFCT =  F,IMPFSN =  F,EXPTOTAL=  F,  IMPTOTAL=  F,IMPREFRACTION=  F,  IMPFREQSHIFT=  F, IMPSOURCE=  F,  SETUP_APPLY_WLV=  F,  JGS_TERMINATE_MAXITER=  T,  JGS_TERMINATE_DIFFERENCE=  T,  JGS_TERMINATE_NORM=  F,  JGS_LIMITER=  F,  JGS_USE_JACOBI=  T,  JGS_BLOCK_GAUSS_SEIDEL=  T,  JGS_MAXITER=  100,  JGS_PMIN=   1.000,  JGS_DIFF_THR=   0.000,  JGS_NORM_THR=   0.000,  JGS_NLEVEL=  0,  JGS_SOURCE_NONLINEAR=  F

  &OUTS P2SF  = 0, I1P2SF = 1, I2P2SF = 15,
        US3D  = 0, I1US3D =  1, I2US3D =  3,
        USSP  = 0, IUSSP  =  1,
        E3D   = 0, I1E3D  =  1, I2E3D  =  3,
        TH1MF = 0, I1TH1M =  1, I2TH1M =  3,
        STH1MF= 0, I1STH1M=  1, I2STH1M=  3,
        TH2MF = 0, I1TH2M =  1, I2TH2M =  3,
        STH2MF= 0, I1STH2M=  1, I2STH2M=  3 /
  &SIC5 IC5MINIG =  0.10E+01, IC5MINWT =  0.00, IC5MAXKRATIO =  0.10E+10,
        IC5MAXKI =  0.10E+03, IC5MINHW =   0., IC5MAXITER = 100.,
        IC5RKICK = 0., IC5KFILTER =  0.0025, IC5VEMOD   =   1. /
  &MISC CICE0 = 0.500, CICEN = 0.500, LICE =      0.0, PMOVE = 0.500,
        XSEED = 1.000, FLAGTR = 0, XP = 0.150, XR = 0.100, XFILT = 0.050
        IHM =  100, HSPM = 0.050, WSM = 1.700, WSC = 0.333, FLC = .TRUE.
        NOSW =  5, FMICHE = 1.600, RWNDC = 1.000, WCOR1 = 99.00, WCOR2 =  0.00,
        FACBERG = 1.0, GSHIFT =   0.000E+00, STDX =   -1.00, STDY =  -1.00,
        STDT =   -1.00, ICEHMIN = 0.20, ICEHFAC = 1.00,
        ICEHINIT = 0.50, ICEDISP =  F, ICEHDISP = 0.60,
        ICESLN =   1.00, ICEWIND =   1.00, ICESNL =   1.00, ICESDS =  1.00,
        ICEDDISP = 80.00, ICEFDISP =  2.00, CALTYPE = standard , TRCKCMPR =   T,
        BTBET  =   1.20 /

  Equivalent namelists finished.


  The spatial grid: 
 --------------------------------------------------

       Grid type                   : rectilinear
       Coordinate system           : Cartesian
       Index closure type          : none
       Dimensions                  :    156       3
       Increments             (km) :    1.00    1.00
       X range                (km) :   -1.00  154.00
       Y range                (km) :   -1.00    1.00

       Bottom level unit           :   401
       Limiting depth          (m) :   -0.10
       Minimum depth           (m) :    0.10
       Scale factor                :   -1.00
       Layout indicator            :     1
       Format indicator            :     1
       File name                   : ../input_IC1/depth1d.flat

       Sub-grid information        : Not available.
  Processing boundary points
  Processing excluded points

  Input boundary points : 
 --------------------------------------------------
       Number of boundary points   :     1

         Nr.|   IX  |   IY  |     X     |     Y     
       -----|-------|-------|-----------|-----------
          1 |     2 |     2 |     0.0E3 |     0.0E3

  Excluded points : 
 --------------------------------------------------
       Number of excluded points   :   314


  Status map, printed in     2 part(s) 
 -----------------------------------

   3 3 3 3 3 3 3 3 3 3 3 3 3 3 3 3 3 3 3 3 3 3 3 3 3 3 3 3 3 3 3 3 3 3 3 3 3 3 3 3 3 3 3 3 3 3 3 3 3 3 3 3 3 3 3 3 3 3 3 3 3 3 3 3 3 3 3 3 3 3 3 3 3 3 3 3 3 3
   3 2 1 1 1 1 1 1 1 1 1 1 1 1 1 1 1 1 1 1 1 1 1 1 1 1 1 1 1 1 1 1 1 1 1 1 1 1 1 1 1 1 1 1 1 1 1 1 1 1 1 1 1 1 1 1 1 1 1 1 1 1 1 1 1 1 1 1 1 1 1 1 1 1 1 1 1 1
   3 3 3 3 3 3 3 3 3 3 3 3 3 3 3 3 3 3 3 3 3 3 3 3 3 3 3 3 3 3 3 3 3 3 3 3 3 3 3 3 3 3 3 3 3 3 3 3 3 3 3 3 3 3 3 3 3 3 3 3 3 3 3 3 3 3 3 3 3 3 3 3 3 3 3 3 3 3
  
   3 3 3 3 3 3 3 3 3 3 3 3 3 3 3 3 3 3 3 3 3 3 3 3 3 3 3 3 3 3 3 3 3 3 3 3 3 3 3 3 3 3 3 3 3 3 3 3 3 3 3 3 3 3 3 3 3 3 3 3 3 3 3 3 3 3 3 3 3 3 3 3 3 3 3 3 3 3
   1 1 1 1 1 1 1 1 1 1 1 1 1 1 1 1 1 1 1 1 1 1 1 1 1 1 1 1 1 1 1 1 1 1 1 1 1 1 1 1 1 1 1 1 1 1 1 1 1 1 1 1 1 1 1 1 1 1 1 1 1 1 1 1 1 1 1 1 1 1 1 1 1 1 1 1 1 3
   3 3 3 3 3 3 3 3 3 3 3 3 3 3 3 3 3 3 3 3 3 3 3 3 3 3 3 3 3 3 3 3 3 3 3 3 3 3 3 3 3 3 3 3 3 3 3 3 3 3 3 3 3 3 3 3 3 3 3 3 3 3 3 3 3 3 3 3 3 3 3 3 3 3 3 3 3 3
  
  Legend : 
 -----------------------------
    0 : Land point            
    1 : Sea point             
    2 : Active boundary point 
    3 : Excluded point        


  Output boundary points : 
 --------------------------------------------------
       No boundary points.


  Writing model definition file ...


  Summary grid statistics : 
 --------------------------------------------------
       Number of longitudes      :       156
       Number of latitudes       :         3
       Number of grid points     :       468
       Number of sea points      :       154 (32.9%)
       Number of input b. points :         1
       Number of land points     :         0
       Number of excluded points :       314


  End of program 
 ========================================
         WAVEWATCH III Grid preprocessor 

