$WAVEWATCH III SHADOW OBSTRUCTIONS
36
$ ilon ilat of the cell. lon: 7.6, 32.0
5   1
$ sizes of the cell in km
    37.736       42.467       48.983       58.329       53.149       48.949       44.478       48.949       53.149       58.329       48.983       42.467       37.736       42.467       48.983       58.329       53.149       48.949       44.478       48.949       53.149       58.329       48.983       42.467
$ mean alpha: 0.680807775321
$ mean beta: 0.826686473639
$alpha by ik, ith
1.00  1.00  1.00  1.00  1.00  1.00  1.00  0.67  0.33  0.00  0.13  0.27  0.40  0.28  0.16  0.04  0.36  0.68  1.00  1.00  1.00  1.00  1.00  1.00
1.00  1.00  1.00  1.00  1.00  1.00  1.00  0.67  0.33  0.00  0.13  0.27  0.40  0.28  0.16  0.04  0.36  0.68  1.00  1.00  1.00  1.00  1.00  1.00
1.00  1.00  1.00  1.00  1.00  1.00  1.00  0.67  0.33  0.00  0.13  0.27  0.40  0.28  0.16  0.04  0.36  0.68  1.00  1.00  1.00  1.00  1.00  1.00
1.00  1.00  1.00  1.00  1.00  1.00  1.00  0.67  0.33  0.00  0.13  0.27  0.40  0.28  0.16  0.04  0.36  0.68  1.00  1.00  1.00  1.00  1.00  1.00
1.00  1.00  1.00  1.00  1.00  1.00  1.00  0.67  0.33  0.00  0.13  0.27  0.40  0.28  0.16  0.04  0.36  0.68  1.00  1.00  1.00  1.00  1.00  1.00
1.00  1.00  1.00  1.00  1.00  1.00  1.00  0.67  0.33  0.00  0.13  0.27  0.40  0.28  0.16  0.04  0.36  0.68  1.00  1.00  1.00  1.00  1.00  1.00
1.00  1.00  1.00  1.00  1.00  1.00  1.00  0.67  0.33  0.00  0.13  0.27  0.40  0.28  0.16  0.04  0.36  0.68  1.00  1.00  1.00  1.00  1.00  1.00
1.00  1.00  1.00  1.00  1.00  1.00  1.00  0.67  0.33  0.00  0.13  0.27  0.40  0.28  0.16  0.04  0.36  0.68  1.00  1.00  1.00  1.00  1.00  1.00
1.00  1.00  1.00  1.00  1.00  1.00  1.00  0.67  0.33  0.00  0.13  0.27  0.40  0.28  0.16  0.04  0.36  0.68  1.00  1.00  1.00  1.00  1.00  1.00
1.00  1.00  1.00  1.00  1.00  1.00  1.00  0.67  0.33  0.00  0.13  0.27  0.40  0.28  0.16  0.04  0.36  0.68  1.00  1.00  1.00  1.00  1.00  1.00
1.00  1.00  1.00  1.00  1.00  1.00  1.00  0.67  0.33  0.00  0.13  0.27  0.40  0.28  0.16  0.04  0.36  0.68  1.00  1.00  1.00  1.00  1.00  1.00
1.00  1.00  1.00  1.00  1.00  1.00  1.00  0.67  0.33  0.00  0.13  0.27  0.40  0.28  0.16  0.04  0.36  0.68  1.00  1.00  1.00  1.00  1.00  1.00
1.00  1.00  1.00  1.00  1.00  1.00  1.00  0.67  0.33  0.00  0.13  0.27  0.40  0.28  0.16  0.04  0.36  0.68  1.00  1.00  1.00  1.00  1.00  1.00
1.00  1.00  1.00  1.00  1.00  1.00  1.00  0.67  0.33  0.00  0.13  0.27  0.40  0.28  0.16  0.04  0.36  0.68  1.00  1.00  1.00  1.00  1.00  1.00
1.00  1.00  1.00  1.00  1.00  1.00  1.00  0.67  0.33  0.00  0.13  0.27  0.40  0.28  0.16  0.04  0.36  0.68  1.00  1.00  1.00  1.00  1.00  1.00
1.00  1.00  1.00  1.00  1.00  1.00  1.00  0.67  0.33  0.00  0.13  0.27  0.40  0.28  0.16  0.04  0.36  0.68  1.00  1.00  1.00  1.00  1.00  1.00
1.00  1.00  1.00  1.00  1.00  1.00  1.00  0.67  0.33  0.00  0.13  0.27  0.40  0.28  0.16  0.04  0.36  0.68  1.00  1.00  1.00  1.00  1.00  1.00
1.00  1.00  1.00  1.00  1.00  1.00  1.00  0.67  0.33  0.00  0.13  0.27  0.40  0.28  0.16  0.04  0.36  0.68  1.00  1.00  1.00  1.00  1.00  1.00
1.00  1.00  1.00  1.00  1.00  1.00  1.00  0.67  0.33  0.00  0.13  0.27  0.40  0.28  0.16  0.04  0.36  0.68  1.00  1.00  1.00  1.00  1.00  1.00
1.00  1.00  1.00  1.00  1.00  1.00  1.00  0.67  0.33  0.00  0.13  0.27  0.40  0.28  0.16  0.04  0.36  0.68  1.00  1.00  1.00  1.00  1.00  1.00
1.00  1.00  1.00  1.00  1.00  1.00  1.00  0.67  0.33  0.00  0.13  0.27  0.40  0.28  0.16  0.04  0.36  0.68  1.00  1.00  1.00  1.00  1.00  1.00
1.00  1.00  1.00  1.00  1.00  1.00  1.00  0.67  0.33  0.00  0.13  0.27  0.40  0.28  0.16  0.04  0.36  0.68  1.00  1.00  1.00  1.00  1.00  1.00
1.00  1.00  1.00  1.00  1.00  1.00  1.00  0.67  0.33  0.00  0.13  0.27  0.40  0.28  0.16  0.04  0.36  0.68  1.00  1.00  1.00  1.00  1.00  1.00
1.00  1.00  1.00  1.00  1.00  1.00  1.00  0.67  0.33  0.00  0.13  0.27  0.40  0.28  0.16  0.04  0.36  0.68  1.00  1.00  1.00  1.00  1.00  1.00
1.00  1.00  1.00  1.00  1.00  1.00  1.00  0.67  0.33  0.00  0.13  0.27  0.40  0.28  0.16  0.04  0.36  0.68  1.00  1.00  1.00  1.00  1.00  1.00
$beta by ik, ith
1.00  1.00  1.00  1.00  1.00  1.00  1.00  0.77  0.53  0.30  0.48  0.67  0.85  0.72  0.59  0.46  0.64  0.82  1.00  1.00  1.00  1.00  1.00  1.00
1.00  1.00  1.00  1.00  1.00  1.00  1.00  0.77  0.53  0.30  0.48  0.67  0.85  0.72  0.59  0.46  0.64  0.82  1.00  1.00  1.00  1.00  1.00  1.00
1.00  1.00  1.00  1.00  1.00  1.00  1.00  0.77  0.53  0.30  0.48  0.67  0.85  0.72  0.59  0.46  0.64  0.82  1.00  1.00  1.00  1.00  1.00  1.00
1.00  1.00  1.00  1.00  1.00  1.00  1.00  0.77  0.53  0.30  0.48  0.67  0.85  0.72  0.59  0.46  0.64  0.82  1.00  1.00  1.00  1.00  1.00  1.00
1.00  1.00  1.00  1.00  1.00  1.00  1.00  0.77  0.53  0.30  0.48  0.67  0.85  0.72  0.59  0.46  0.64  0.82  1.00  1.00  1.00  1.00  1.00  1.00
1.00  1.00  1.00  1.00  1.00  1.00  1.00  0.77  0.53  0.30  0.48  0.67  0.85  0.72  0.59  0.46  0.64  0.82  1.00  1.00  1.00  1.00  1.00  1.00
1.00  1.00  1.00  1.00  1.00  1.00  1.00  0.77  0.53  0.30  0.48  0.67  0.85  0.72  0.59  0.46  0.64  0.82  1.00  1.00  1.00  1.00  1.00  1.00
1.00  1.00  1.00  1.00  1.00  1.00  1.00  0.77  0.53  0.30  0.48  0.67  0.85  0.72  0.59  0.46  0.64  0.82  1.00  1.00  1.00  1.00  1.00  1.00
1.00  1.00  1.00  1.00  1.00  1.00  1.00  0.77  0.53  0.30  0.48  0.67  0.85  0.72  0.59  0.46  0.64  0.82  1.00  1.00  1.00  1.00  1.00  1.00
1.00  1.00  1.00  1.00  1.00  1.00  1.00  0.77  0.53  0.30  0.48  0.67  0.85  0.72  0.59  0.46  0.64  0.82  1.00  1.00  1.00  1.00  1.00  1.00
1.00  1.00  1.00  1.00  1.00  1.00  1.00  0.77  0.53  0.30  0.48  0.67  0.85  0.72  0.59  0.46  0.64  0.82  1.00  1.00  1.00  1.00  1.00  1.00
1.00  1.00  1.00  1.00  1.00  1.00  1.00  0.77  0.53  0.30  0.48  0.67  0.85  0.72  0.59  0.46  0.64  0.82  1.00  1.00  1.00  1.00  1.00  1.00
1.00  1.00  1.00  1.00  1.00  1.00  1.00  0.77  0.53  0.30  0.48  0.67  0.85  0.72  0.59  0.46  0.64  0.82  1.00  1.00  1.00  1.00  1.00  1.00
1.00  1.00  1.00  1.00  1.00  1.00  1.00  0.77  0.53  0.30  0.48  0.67  0.85  0.72  0.59  0.46  0.64  0.82  1.00  1.00  1.00  1.00  1.00  1.00
1.00  1.00  1.00  1.00  1.00  1.00  1.00  0.77  0.53  0.30  0.48  0.67  0.85  0.72  0.59  0.46  0.64  0.82  1.00  1.00  1.00  1.00  1.00  1.00
1.00  1.00  1.00  1.00  1.00  1.00  1.00  0.77  0.53  0.30  0.48  0.67  0.85  0.72  0.59  0.46  0.64  0.82  1.00  1.00  1.00  1.00  1.00  1.00
1.00  1.00  1.00  1.00  1.00  1.00  1.00  0.77  0.53  0.30  0.48  0.67  0.85  0.72  0.59  0.46  0.64  0.82  1.00  1.00  1.00  1.00  1.00  1.00
1.00  1.00  1.00  1.00  1.00  1.00  1.00  0.77  0.53  0.30  0.48  0.67  0.85  0.72  0.59  0.46  0.64  0.82  1.00  1.00  1.00  1.00  1.00  1.00
1.00  1.00  1.00  1.00  1.00  1.00  1.00  0.77  0.53  0.30  0.48  0.67  0.85  0.72  0.59  0.46  0.64  0.82  1.00  1.00  1.00  1.00  1.00  1.00
1.00  1.00  1.00  1.00  1.00  1.00  1.00  0.77  0.53  0.30  0.48  0.67  0.85  0.72  0.59  0.46  0.64  0.82  1.00  1.00  1.00  1.00  1.00  1.00
1.00  1.00  1.00  1.00  1.00  1.00  1.00  0.77  0.53  0.30  0.48  0.67  0.85  0.72  0.59  0.46  0.64  0.82  1.00  1.00  1.00  1.00  1.00  1.00
1.00  1.00  1.00  1.00  1.00  1.00  1.00  0.77  0.53  0.30  0.48  0.67  0.85  0.72  0.59  0.46  0.64  0.82  1.00  1.00  1.00  1.00  1.00  1.00
1.00  1.00  1.00  1.00  1.00  1.00  1.00  0.77  0.53  0.30  0.48  0.67  0.85  0.72  0.59  0.46  0.64  0.82  1.00  1.00  1.00  1.00  1.00  1.00
1.00  1.00  1.00  1.00  1.00  1.00  1.00  0.77  0.53  0.30  0.48  0.67  0.85  0.72  0.59  0.46  0.64  0.82  1.00  1.00  1.00  1.00  1.00  1.00
1.00  1.00  1.00  1.00  1.00  1.00  1.00  0.77  0.53  0.30  0.48  0.67  0.85  0.72  0.59  0.46  0.64  0.82  1.00  1.00  1.00  1.00  1.00  1.00
$ ilon ilat of the cell. lon: 7.6, 32.4
5   2
$ sizes of the cell in km
    37.571       42.298       48.836       58.222       53.104       48.938       44.478       48.938       53.104       58.222       48.836       42.298       37.571       42.298       48.836       58.222       53.104       48.938       44.478       48.938       53.104       58.222       48.836       42.298
$ mean alpha: 0.680807775321
$ mean beta: 0.830754279734
$alpha by ik, ith
1.00  1.00  1.00  1.00  1.00  1.00  1.00  0.67  0.33  0.00  0.13  0.27  0.40  0.28  0.16  0.04  0.36  0.68  1.00  1.00  1.00  1.00  1.00  1.00
1.00  1.00  1.00  1.00  1.00  1.00  1.00  0.67  0.33  0.00  0.13  0.27  0.40  0.28  0.16  0.04  0.36  0.68  1.00  1.00  1.00  1.00  1.00  1.00
1.00  1.00  1.00  1.00  1.00  1.00  1.00  0.67  0.33  0.00  0.13  0.27  0.40  0.28  0.16  0.04  0.36  0.68  1.00  1.00  1.00  1.00  1.00  1.00
1.00  1.00  1.00  1.00  1.00  1.00  1.00  0.67  0.33  0.00  0.13  0.27  0.40  0.28  0.16  0.04  0.36  0.68  1.00  1.00  1.00  1.00  1.00  1.00
1.00  1.00  1.00  1.00  1.00  1.00  1.00  0.67  0.33  0.00  0.13  0.27  0.40  0.28  0.16  0.04  0.36  0.68  1.00  1.00  1.00  1.00  1.00  1.00
1.00  1.00  1.00  1.00  1.00  1.00  1.00  0.67  0.33  0.00  0.13  0.27  0.40  0.28  0.16  0.04  0.36  0.68  1.00  1.00  1.00  1.00  1.00  1.00
1.00  1.00  1.00  1.00  1.00  1.00  1.00  0.67  0.33  0.00  0.13  0.27  0.40  0.28  0.16  0.04  0.36  0.68  1.00  1.00  1.00  1.00  1.00  1.00
1.00  1.00  1.00  1.00  1.00  1.00  1.00  0.67  0.33  0.00  0.13  0.27  0.40  0.28  0.16  0.04  0.36  0.68  1.00  1.00  1.00  1.00  1.00  1.00
1.00  1.00  1.00  1.00  1.00  1.00  1.00  0.67  0.33  0.00  0.13  0.27  0.40  0.28  0.16  0.04  0.36  0.68  1.00  1.00  1.00  1.00  1.00  1.00
1.00  1.00  1.00  1.00  1.00  1.00  1.00  0.67  0.33  0.00  0.13  0.27  0.40  0.28  0.16  0.04  0.36  0.68  1.00  1.00  1.00  1.00  1.00  1.00
1.00  1.00  1.00  1.00  1.00  1.00  1.00  0.67  0.33  0.00  0.13  0.27  0.40  0.28  0.16  0.04  0.36  0.68  1.00  1.00  1.00  1.00  1.00  1.00
1.00  1.00  1.00  1.00  1.00  1.00  1.00  0.67  0.33  0.00  0.13  0.27  0.40  0.28  0.16  0.04  0.36  0.68  1.00  1.00  1.00  1.00  1.00  1.00
1.00  1.00  1.00  1.00  1.00  1.00  1.00  0.67  0.33  0.00  0.13  0.27  0.40  0.28  0.16  0.04  0.36  0.68  1.00  1.00  1.00  1.00  1.00  1.00
1.00  1.00  1.00  1.00  1.00  1.00  1.00  0.67  0.33  0.00  0.13  0.27  0.40  0.28  0.16  0.04  0.36  0.68  1.00  1.00  1.00  1.00  1.00  1.00
1.00  1.00  1.00  1.00  1.00  1.00  1.00  0.67  0.33  0.00  0.13  0.27  0.40  0.28  0.16  0.04  0.36  0.68  1.00  1.00  1.00  1.00  1.00  1.00
1.00  1.00  1.00  1.00  1.00  1.00  1.00  0.67  0.33  0.00  0.13  0.27  0.40  0.28  0.16  0.04  0.36  0.68  1.00  1.00  1.00  1.00  1.00  1.00
1.00  1.00  1.00  1.00  1.00  1.00  1.00  0.67  0.33  0.00  0.13  0.27  0.40  0.28  0.16  0.04  0.36  0.68  1.00  1.00  1.00  1.00  1.00  1.00
1.00  1.00  1.00  1.00  1.00  1.00  1.00  0.67  0.33  0.00  0.13  0.27  0.40  0.28  0.16  0.04  0.36  0.68  1.00  1.00  1.00  1.00  1.00  1.00
1.00  1.00  1.00  1.00  1.00  1.00  1.00  0.67  0.33  0.00  0.13  0.27  0.40  0.28  0.16  0.04  0.36  0.68  1.00  1.00  1.00  1.00  1.00  1.00
1.00  1.00  1.00  1.00  1.00  1.00  1.00  0.67  0.33  0.00  0.13  0.27  0.40  0.28  0.16  0.04  0.36  0.68  1.00  1.00  1.00  1.00  1.00  1.00
1.00  1.00  1.00  1.00  1.00  1.00  1.00  0.67  0.33  0.00  0.13  0.27  0.40  0.28  0.16  0.04  0.36  0.68  1.00  1.00  1.00  1.00  1.00  1.00
1.00  1.00  1.00  1.00  1.00  1.00  1.00  0.67  0.33  0.00  0.13  0.27  0.40  0.28  0.16  0.04  0.36  0.68  1.00  1.00  1.00  1.00  1.00  1.00
1.00  1.00  1.00  1.00  1.00  1.00  1.00  0.67  0.33  0.00  0.13  0.27  0.40  0.28  0.16  0.04  0.36  0.68  1.00  1.00  1.00  1.00  1.00  1.00
1.00  1.00  1.00  1.00  1.00  1.00  1.00  0.67  0.33  0.00  0.13  0.27  0.40  0.28  0.16  0.04  0.36  0.68  1.00  1.00  1.00  1.00  1.00  1.00
1.00  1.00  1.00  1.00  1.00  1.00  1.00  0.67  0.33  0.00  0.13  0.27  0.40  0.28  0.16  0.04  0.36  0.68  1.00  1.00  1.00  1.00  1.00  1.00
$beta by ik, ith
1.00  1.00  1.00  1.00  1.00  1.00  1.00  0.78  0.55  0.33  0.50  0.68  0.85  0.72  0.59  0.46  0.64  0.82  1.00  1.00  1.00  1.00  1.00  1.00
1.00  1.00  1.00  1.00  1.00  1.00  1.00  0.78  0.55  0.33  0.50  0.68  0.85  0.72  0.59  0.46  0.64  0.82  1.00  1.00  1.00  1.00  1.00  1.00
1.00  1.00  1.00  1.00  1.00  1.00  1.00  0.78  0.55  0.33  0.50  0.68  0.85  0.72  0.59  0.46  0.64  0.82  1.00  1.00  1.00  1.00  1.00  1.00
1.00  1.00  1.00  1.00  1.00  1.00  1.00  0.78  0.55  0.33  0.50  0.68  0.85  0.72  0.59  0.46  0.64  0.82  1.00  1.00  1.00  1.00  1.00  1.00
1.00  1.00  1.00  1.00  1.00  1.00  1.00  0.78  0.55  0.33  0.50  0.68  0.85  0.72  0.59  0.46  0.64  0.82  1.00  1.00  1.00  1.00  1.00  1.00
1.00  1.00  1.00  1.00  1.00  1.00  1.00  0.78  0.55  0.33  0.50  0.68  0.85  0.72  0.59  0.46  0.64  0.82  1.00  1.00  1.00  1.00  1.00  1.00
1.00  1.00  1.00  1.00  1.00  1.00  1.00  0.78  0.55  0.33  0.50  0.68  0.85  0.72  0.59  0.46  0.64  0.82  1.00  1.00  1.00  1.00  1.00  1.00
1.00  1.00  1.00  1.00  1.00  1.00  1.00  0.78  0.55  0.33  0.50  0.68  0.85  0.72  0.59  0.46  0.64  0.82  1.00  1.00  1.00  1.00  1.00  1.00
1.00  1.00  1.00  1.00  1.00  1.00  1.00  0.78  0.55  0.33  0.50  0.68  0.85  0.72  0.59  0.46  0.64  0.82  1.00  1.00  1.00  1.00  1.00  1.00
1.00  1.00  1.00  1.00  1.00  1.00  1.00  0.78  0.55  0.33  0.50  0.68  0.85  0.72  0.59  0.46  0.64  0.82  1.00  1.00  1.00  1.00  1.00  1.00
1.00  1.00  1.00  1.00  1.00  1.00  1.00  0.78  0.55  0.33  0.50  0.68  0.85  0.72  0.59  0.46  0.64  0.82  1.00  1.00  1.00  1.00  1.00  1.00
1.00  1.00  1.00  1.00  1.00  1.00  1.00  0.78  0.55  0.33  0.50  0.68  0.85  0.72  0.59  0.46  0.64  0.82  1.00  1.00  1.00  1.00  1.00  1.00
1.00  1.00  1.00  1.00  1.00  1.00  1.00  0.78  0.55  0.33  0.50  0.68  0.85  0.72  0.59  0.46  0.64  0.82  1.00  1.00  1.00  1.00  1.00  1.00
1.00  1.00  1.00  1.00  1.00  1.00  1.00  0.78  0.55  0.33  0.50  0.68  0.85  0.72  0.59  0.46  0.64  0.82  1.00  1.00  1.00  1.00  1.00  1.00
1.00  1.00  1.00  1.00  1.00  1.00  1.00  0.78  0.55  0.33  0.50  0.68  0.85  0.72  0.59  0.46  0.64  0.82  1.00  1.00  1.00  1.00  1.00  1.00
1.00  1.00  1.00  1.00  1.00  1.00  1.00  0.78  0.55  0.33  0.50  0.68  0.85  0.72  0.59  0.46  0.64  0.82  1.00  1.00  1.00  1.00  1.00  1.00
1.00  1.00  1.00  1.00  1.00  1.00  1.00  0.78  0.55  0.33  0.50  0.68  0.85  0.72  0.59  0.46  0.64  0.82  1.00  1.00  1.00  1.00  1.00  1.00
1.00  1.00  1.00  1.00  1.00  1.00  1.00  0.78  0.55  0.33  0.50  0.68  0.85  0.72  0.59  0.46  0.64  0.82  1.00  1.00  1.00  1.00  1.00  1.00
1.00  1.00  1.00  1.00  1.00  1.00  1.00  0.78  0.55  0.33  0.50  0.68  0.85  0.72  0.59  0.46  0.64  0.82  1.00  1.00  1.00  1.00  1.00  1.00
1.00  1.00  1.00  1.00  1.00  1.00  1.00  0.78  0.55  0.33  0.50  0.68  0.85  0.72  0.59  0.46  0.64  0.82  1.00  1.00  1.00  1.00  1.00  1.00
1.00  1.00  1.00  1.00  1.00  1.00  1.00  0.78  0.55  0.33  0.50  0.68  0.85  0.72  0.59  0.46  0.64  0.82  1.00  1.00  1.00  1.00  1.00  1.00
1.00  1.00  1.00  1.00  1.00  1.00  1.00  0.78  0.55  0.33  0.50  0.68  0.85  0.72  0.59  0.46  0.64  0.82  1.00  1.00  1.00  1.00  1.00  1.00
1.00  1.00  1.00  1.00  1.00  1.00  1.00  0.78  0.55  0.33  0.50  0.68  0.85  0.72  0.59  0.46  0.64  0.82  1.00  1.00  1.00  1.00  1.00  1.00
1.00  1.00  1.00  1.00  1.00  1.00  1.00  0.78  0.55  0.33  0.50  0.68  0.85  0.72  0.59  0.46  0.64  0.82  1.00  1.00  1.00  1.00  1.00  1.00
1.00  1.00  1.00  1.00  1.00  1.00  1.00  0.78  0.55  0.33  0.50  0.68  0.85  0.72  0.59  0.46  0.64  0.82  1.00  1.00  1.00  1.00  1.00  1.00
$ ilon ilat of the cell. lon: 7.6, 32.8
5   3
$ sizes of the cell in km
    37.404       42.127       48.688       58.115       53.059       48.927       44.478       48.927       53.059       58.115       48.688       42.127       37.404       42.127       48.688       58.115       53.059       48.927       44.478       48.927       53.059       58.115       48.688       42.127
$ mean alpha: 0.680807775321
$ mean beta: 0.830754279734
$alpha by ik, ith
1.00  1.00  1.00  1.00  1.00  1.00  1.00  0.67  0.33  0.00  0.13  0.27  0.40  0.28  0.16  0.04  0.36  0.68  1.00  1.00  1.00  1.00  1.00  1.00
1.00  1.00  1.00  1.00  1.00  1.00  1.00  0.67  0.33  0.00  0.13  0.27  0.40  0.28  0.16  0.04  0.36  0.68  1.00  1.00  1.00  1.00  1.00  1.00
1.00  1.00  1.00  1.00  1.00  1.00  1.00  0.67  0.33  0.00  0.13  0.27  0.40  0.28  0.16  0.04  0.36  0.68  1.00  1.00  1.00  1.00  1.00  1.00
1.00  1.00  1.00  1.00  1.00  1.00  1.00  0.67  0.33  0.00  0.13  0.27  0.40  0.28  0.16  0.04  0.36  0.68  1.00  1.00  1.00  1.00  1.00  1.00
1.00  1.00  1.00  1.00  1.00  1.00  1.00  0.67  0.33  0.00  0.13  0.27  0.40  0.28  0.16  0.04  0.36  0.68  1.00  1.00  1.00  1.00  1.00  1.00
1.00  1.00  1.00  1.00  1.00  1.00  1.00  0.67  0.33  0.00  0.13  0.27  0.40  0.28  0.16  0.04  0.36  0.68  1.00  1.00  1.00  1.00  1.00  1.00
1.00  1.00  1.00  1.00  1.00  1.00  1.00  0.67  0.33  0.00  0.13  0.27  0.40  0.28  0.16  0.04  0.36  0.68  1.00  1.00  1.00  1.00  1.00  1.00
1.00  1.00  1.00  1.00  1.00  1.00  1.00  0.67  0.33  0.00  0.13  0.27  0.40  0.28  0.16  0.04  0.36  0.68  1.00  1.00  1.00  1.00  1.00  1.00
1.00  1.00  1.00  1.00  1.00  1.00  1.00  0.67  0.33  0.00  0.13  0.27  0.40  0.28  0.16  0.04  0.36  0.68  1.00  1.00  1.00  1.00  1.00  1.00
1.00  1.00  1.00  1.00  1.00  1.00  1.00  0.67  0.33  0.00  0.13  0.27  0.40  0.28  0.16  0.04  0.36  0.68  1.00  1.00  1.00  1.00  1.00  1.00
1.00  1.00  1.00  1.00  1.00  1.00  1.00  0.67  0.33  0.00  0.13  0.27  0.40  0.28  0.16  0.04  0.36  0.68  1.00  1.00  1.00  1.00  1.00  1.00
1.00  1.00  1.00  1.00  1.00  1.00  1.00  0.67  0.33  0.00  0.13  0.27  0.40  0.28  0.16  0.04  0.36  0.68  1.00  1.00  1.00  1.00  1.00  1.00
1.00  1.00  1.00  1.00  1.00  1.00  1.00  0.67  0.33  0.00  0.13  0.27  0.40  0.28  0.16  0.04  0.36  0.68  1.00  1.00  1.00  1.00  1.00  1.00
1.00  1.00  1.00  1.00  1.00  1.00  1.00  0.67  0.33  0.00  0.13  0.27  0.40  0.28  0.16  0.04  0.36  0.68  1.00  1.00  1.00  1.00  1.00  1.00
1.00  1.00  1.00  1.00  1.00  1.00  1.00  0.67  0.33  0.00  0.13  0.27  0.40  0.28  0.16  0.04  0.36  0.68  1.00  1.00  1.00  1.00  1.00  1.00
1.00  1.00  1.00  1.00  1.00  1.00  1.00  0.67  0.33  0.00  0.13  0.27  0.40  0.28  0.16  0.04  0.36  0.68  1.00  1.00  1.00  1.00  1.00  1.00
1.00  1.00  1.00  1.00  1.00  1.00  1.00  0.67  0.33  0.00  0.13  0.27  0.40  0.28  0.16  0.04  0.36  0.68  1.00  1.00  1.00  1.00  1.00  1.00
1.00  1.00  1.00  1.00  1.00  1.00  1.00  0.67  0.33  0.00  0.13  0.27  0.40  0.28  0.16  0.04  0.36  0.68  1.00  1.00  1.00  1.00  1.00  1.00
1.00  1.00  1.00  1.00  1.00  1.00  1.00  0.67  0.33  0.00  0.13  0.27  0.40  0.28  0.16  0.04  0.36  0.68  1.00  1.00  1.00  1.00  1.00  1.00
1.00  1.00  1.00  1.00  1.00  1.00  1.00  0.67  0.33  0.00  0.13  0.27  0.40  0.28  0.16  0.04  0.36  0.68  1.00  1.00  1.00  1.00  1.00  1.00
1.00  1.00  1.00  1.00  1.00  1.00  1.00  0.67  0.33  0.00  0.13  0.27  0.40  0.28  0.16  0.04  0.36  0.68  1.00  1.00  1.00  1.00  1.00  1.00
1.00  1.00  1.00  1.00  1.00  1.00  1.00  0.67  0.33  0.00  0.13  0.27  0.40  0.28  0.16  0.04  0.36  0.68  1.00  1.00  1.00  1.00  1.00  1.00
1.00  1.00  1.00  1.00  1.00  1.00  1.00  0.67  0.33  0.00  0.13  0.27  0.40  0.28  0.16  0.04  0.36  0.68  1.00  1.00  1.00  1.00  1.00  1.00
1.00  1.00  1.00  1.00  1.00  1.00  1.00  0.67  0.33  0.00  0.13  0.27  0.40  0.28  0.16  0.04  0.36  0.68  1.00  1.00  1.00  1.00  1.00  1.00
1.00  1.00  1.00  1.00  1.00  1.00  1.00  0.67  0.33  0.00  0.13  0.27  0.40  0.28  0.16  0.04  0.36  0.68  1.00  1.00  1.00  1.00  1.00  1.00
$beta by ik, ith
1.00  1.00  1.00  1.00  1.00  1.00  1.00  0.78  0.55  0.33  0.50  0.68  0.85  0.72  0.59  0.46  0.64  0.82  1.00  1.00  1.00  1.00  1.00  1.00
1.00  1.00  1.00  1.00  1.00  1.00  1.00  0.78  0.55  0.33  0.50  0.68  0.85  0.72  0.59  0.46  0.64  0.82  1.00  1.00  1.00  1.00  1.00  1.00
1.00  1.00  1.00  1.00  1.00  1.00  1.00  0.78  0.55  0.33  0.50  0.68  0.85  0.72  0.59  0.46  0.64  0.82  1.00  1.00  1.00  1.00  1.00  1.00
1.00  1.00  1.00  1.00  1.00  1.00  1.00  0.78  0.55  0.33  0.50  0.68  0.85  0.72  0.59  0.46  0.64  0.82  1.00  1.00  1.00  1.00  1.00  1.00
1.00  1.00  1.00  1.00  1.00  1.00  1.00  0.78  0.55  0.33  0.50  0.68  0.85  0.72  0.59  0.46  0.64  0.82  1.00  1.00  1.00  1.00  1.00  1.00
1.00  1.00  1.00  1.00  1.00  1.00  1.00  0.78  0.55  0.33  0.50  0.68  0.85  0.72  0.59  0.46  0.64  0.82  1.00  1.00  1.00  1.00  1.00  1.00
1.00  1.00  1.00  1.00  1.00  1.00  1.00  0.78  0.55  0.33  0.50  0.68  0.85  0.72  0.59  0.46  0.64  0.82  1.00  1.00  1.00  1.00  1.00  1.00
1.00  1.00  1.00  1.00  1.00  1.00  1.00  0.78  0.55  0.33  0.50  0.68  0.85  0.72  0.59  0.46  0.64  0.82  1.00  1.00  1.00  1.00  1.00  1.00
1.00  1.00  1.00  1.00  1.00  1.00  1.00  0.78  0.55  0.33  0.50  0.68  0.85  0.72  0.59  0.46  0.64  0.82  1.00  1.00  1.00  1.00  1.00  1.00
1.00  1.00  1.00  1.00  1.00  1.00  1.00  0.78  0.55  0.33  0.50  0.68  0.85  0.72  0.59  0.46  0.64  0.82  1.00  1.00  1.00  1.00  1.00  1.00
1.00  1.00  1.00  1.00  1.00  1.00  1.00  0.78  0.55  0.33  0.50  0.68  0.85  0.72  0.59  0.46  0.64  0.82  1.00  1.00  1.00  1.00  1.00  1.00
1.00  1.00  1.00  1.00  1.00  1.00  1.00  0.78  0.55  0.33  0.50  0.68  0.85  0.72  0.59  0.46  0.64  0.82  1.00  1.00  1.00  1.00  1.00  1.00
1.00  1.00  1.00  1.00  1.00  1.00  1.00  0.78  0.55  0.33  0.50  0.68  0.85  0.72  0.59  0.46  0.64  0.82  1.00  1.00  1.00  1.00  1.00  1.00
1.00  1.00  1.00  1.00  1.00  1.00  1.00  0.78  0.55  0.33  0.50  0.68  0.85  0.72  0.59  0.46  0.64  0.82  1.00  1.00  1.00  1.00  1.00  1.00
1.00  1.00  1.00  1.00  1.00  1.00  1.00  0.78  0.55  0.33  0.50  0.68  0.85  0.72  0.59  0.46  0.64  0.82  1.00  1.00  1.00  1.00  1.00  1.00
1.00  1.00  1.00  1.00  1.00  1.00  1.00  0.78  0.55  0.33  0.50  0.68  0.85  0.72  0.59  0.46  0.64  0.82  1.00  1.00  1.00  1.00  1.00  1.00
1.00  1.00  1.00  1.00  1.00  1.00  1.00  0.78  0.55  0.33  0.50  0.68  0.85  0.72  0.59  0.46  0.64  0.82  1.00  1.00  1.00  1.00  1.00  1.00
1.00  1.00  1.00  1.00  1.00  1.00  1.00  0.78  0.55  0.33  0.50  0.68  0.85  0.72  0.59  0.46  0.64  0.82  1.00  1.00  1.00  1.00  1.00  1.00
1.00  1.00  1.00  1.00  1.00  1.00  1.00  0.78  0.55  0.33  0.50  0.68  0.85  0.72  0.59  0.46  0.64  0.82  1.00  1.00  1.00  1.00  1.00  1.00
1.00  1.00  1.00  1.00  1.00  1.00  1.00  0.78  0.55  0.33  0.50  0.68  0.85  0.72  0.59  0.46  0.64  0.82  1.00  1.00  1.00  1.00  1.00  1.00
1.00  1.00  1.00  1.00  1.00  1.00  1.00  0.78  0.55  0.33  0.50  0.68  0.85  0.72  0.59  0.46  0.64  0.82  1.00  1.00  1.00  1.00  1.00  1.00
1.00  1.00  1.00  1.00  1.00  1.00  1.00  0.78  0.55  0.33  0.50  0.68  0.85  0.72  0.59  0.46  0.64  0.82  1.00  1.00  1.00  1.00  1.00  1.00
1.00  1.00  1.00  1.00  1.00  1.00  1.00  0.78  0.55  0.33  0.50  0.68  0.85  0.72  0.59  0.46  0.64  0.82  1.00  1.00  1.00  1.00  1.00  1.00
1.00  1.00  1.00  1.00  1.00  1.00  1.00  0.78  0.55  0.33  0.50  0.68  0.85  0.72  0.59  0.46  0.64  0.82  1.00  1.00  1.00  1.00  1.00  1.00
1.00  1.00  1.00  1.00  1.00  1.00  1.00  0.78  0.55  0.33  0.50  0.68  0.85  0.72  0.59  0.46  0.64  0.82  1.00  1.00  1.00  1.00  1.00  1.00
$ ilon ilat of the cell. lon: 7.6, 33.2
5   4
$ sizes of the cell in km
    37.235       41.955       48.539       58.006       53.013       48.917       44.478       48.917       53.013       58.006       48.539       41.955       37.235       41.955       48.539       58.006       53.013       48.917       44.478       48.917       53.013       58.006       48.539       41.955
$ mean alpha: 0.680807775321
$ mean beta: 0.830754279734
$alpha by ik, ith
1.00  1.00  1.00  1.00  1.00  1.00  1.00  0.67  0.33  0.00  0.13  0.27  0.40  0.28  0.16  0.04  0.36  0.68  1.00  1.00  1.00  1.00  1.00  1.00
1.00  1.00  1.00  1.00  1.00  1.00  1.00  0.67  0.33  0.00  0.13  0.27  0.40  0.28  0.16  0.04  0.36  0.68  1.00  1.00  1.00  1.00  1.00  1.00
1.00  1.00  1.00  1.00  1.00  1.00  1.00  0.67  0.33  0.00  0.13  0.27  0.40  0.28  0.16  0.04  0.36  0.68  1.00  1.00  1.00  1.00  1.00  1.00
1.00  1.00  1.00  1.00  1.00  1.00  1.00  0.67  0.33  0.00  0.13  0.27  0.40  0.28  0.16  0.04  0.36  0.68  1.00  1.00  1.00  1.00  1.00  1.00
1.00  1.00  1.00  1.00  1.00  1.00  1.00  0.67  0.33  0.00  0.13  0.27  0.40  0.28  0.16  0.04  0.36  0.68  1.00  1.00  1.00  1.00  1.00  1.00
1.00  1.00  1.00  1.00  1.00  1.00  1.00  0.67  0.33  0.00  0.13  0.27  0.40  0.28  0.16  0.04  0.36  0.68  1.00  1.00  1.00  1.00  1.00  1.00
1.00  1.00  1.00  1.00  1.00  1.00  1.00  0.67  0.33  0.00  0.13  0.27  0.40  0.28  0.16  0.04  0.36  0.68  1.00  1.00  1.00  1.00  1.00  1.00
1.00  1.00  1.00  1.00  1.00  1.00  1.00  0.67  0.33  0.00  0.13  0.27  0.40  0.28  0.16  0.04  0.36  0.68  1.00  1.00  1.00  1.00  1.00  1.00
1.00  1.00  1.00  1.00  1.00  1.00  1.00  0.67  0.33  0.00  0.13  0.27  0.40  0.28  0.16  0.04  0.36  0.68  1.00  1.00  1.00  1.00  1.00  1.00
1.00  1.00  1.00  1.00  1.00  1.00  1.00  0.67  0.33  0.00  0.13  0.27  0.40  0.28  0.16  0.04  0.36  0.68  1.00  1.00  1.00  1.00  1.00  1.00
1.00  1.00  1.00  1.00  1.00  1.00  1.00  0.67  0.33  0.00  0.13  0.27  0.40  0.28  0.16  0.04  0.36  0.68  1.00  1.00  1.00  1.00  1.00  1.00
1.00  1.00  1.00  1.00  1.00  1.00  1.00  0.67  0.33  0.00  0.13  0.27  0.40  0.28  0.16  0.04  0.36  0.68  1.00  1.00  1.00  1.00  1.00  1.00
1.00  1.00  1.00  1.00  1.00  1.00  1.00  0.67  0.33  0.00  0.13  0.27  0.40  0.28  0.16  0.04  0.36  0.68  1.00  1.00  1.00  1.00  1.00  1.00
1.00  1.00  1.00  1.00  1.00  1.00  1.00  0.67  0.33  0.00  0.13  0.27  0.40  0.28  0.16  0.04  0.36  0.68  1.00  1.00  1.00  1.00  1.00  1.00
1.00  1.00  1.00  1.00  1.00  1.00  1.00  0.67  0.33  0.00  0.13  0.27  0.40  0.28  0.16  0.04  0.36  0.68  1.00  1.00  1.00  1.00  1.00  1.00
1.00  1.00  1.00  1.00  1.00  1.00  1.00  0.67  0.33  0.00  0.13  0.27  0.40  0.28  0.16  0.04  0.36  0.68  1.00  1.00  1.00  1.00  1.00  1.00
1.00  1.00  1.00  1.00  1.00  1.00  1.00  0.67  0.33  0.00  0.13  0.27  0.40  0.28  0.16  0.04  0.36  0.68  1.00  1.00  1.00  1.00  1.00  1.00
1.00  1.00  1.00  1.00  1.00  1.00  1.00  0.67  0.33  0.00  0.13  0.27  0.40  0.28  0.16  0.04  0.36  0.68  1.00  1.00  1.00  1.00  1.00  1.00
1.00  1.00  1.00  1.00  1.00  1.00  1.00  0.67  0.33  0.00  0.13  0.27  0.40  0.28  0.16  0.04  0.36  0.68  1.00  1.00  1.00  1.00  1.00  1.00
1.00  1.00  1.00  1.00  1.00  1.00  1.00  0.67  0.33  0.00  0.13  0.27  0.40  0.28  0.16  0.04  0.36  0.68  1.00  1.00  1.00  1.00  1.00  1.00
1.00  1.00  1.00  1.00  1.00  1.00  1.00  0.67  0.33  0.00  0.13  0.27  0.40  0.28  0.16  0.04  0.36  0.68  1.00  1.00  1.00  1.00  1.00  1.00
1.00  1.00  1.00  1.00  1.00  1.00  1.00  0.67  0.33  0.00  0.13  0.27  0.40  0.28  0.16  0.04  0.36  0.68  1.00  1.00  1.00  1.00  1.00  1.00
1.00  1.00  1.00  1.00  1.00  1.00  1.00  0.67  0.33  0.00  0.13  0.27  0.40  0.28  0.16  0.04  0.36  0.68  1.00  1.00  1.00  1.00  1.00  1.00
1.00  1.00  1.00  1.00  1.00  1.00  1.00  0.67  0.33  0.00  0.13  0.27  0.40  0.28  0.16  0.04  0.36  0.68  1.00  1.00  1.00  1.00  1.00  1.00
1.00  1.00  1.00  1.00  1.00  1.00  1.00  0.67  0.33  0.00  0.13  0.27  0.40  0.28  0.16  0.04  0.36  0.68  1.00  1.00  1.00  1.00  1.00  1.00
$beta by ik, ith
1.00  1.00  1.00  1.00  1.00  1.00  1.00  0.78  0.55  0.33  0.50  0.68  0.85  0.72  0.59  0.46  0.64  0.82  1.00  1.00  1.00  1.00  1.00  1.00
1.00  1.00  1.00  1.00  1.00  1.00  1.00  0.78  0.55  0.33  0.50  0.68  0.85  0.72  0.59  0.46  0.64  0.82  1.00  1.00  1.00  1.00  1.00  1.00
1.00  1.00  1.00  1.00  1.00  1.00  1.00  0.78  0.55  0.33  0.50  0.68  0.85  0.72  0.59  0.46  0.64  0.82  1.00  1.00  1.00  1.00  1.00  1.00
1.00  1.00  1.00  1.00  1.00  1.00  1.00  0.78  0.55  0.33  0.50  0.68  0.85  0.72  0.59  0.46  0.64  0.82  1.00  1.00  1.00  1.00  1.00  1.00
1.00  1.00  1.00  1.00  1.00  1.00  1.00  0.78  0.55  0.33  0.50  0.68  0.85  0.72  0.59  0.46  0.64  0.82  1.00  1.00  1.00  1.00  1.00  1.00
1.00  1.00  1.00  1.00  1.00  1.00  1.00  0.78  0.55  0.33  0.50  0.68  0.85  0.72  0.59  0.46  0.64  0.82  1.00  1.00  1.00  1.00  1.00  1.00
1.00  1.00  1.00  1.00  1.00  1.00  1.00  0.78  0.55  0.33  0.50  0.68  0.85  0.72  0.59  0.46  0.64  0.82  1.00  1.00  1.00  1.00  1.00  1.00
1.00  1.00  1.00  1.00  1.00  1.00  1.00  0.78  0.55  0.33  0.50  0.68  0.85  0.72  0.59  0.46  0.64  0.82  1.00  1.00  1.00  1.00  1.00  1.00
1.00  1.00  1.00  1.00  1.00  1.00  1.00  0.78  0.55  0.33  0.50  0.68  0.85  0.72  0.59  0.46  0.64  0.82  1.00  1.00  1.00  1.00  1.00  1.00
1.00  1.00  1.00  1.00  1.00  1.00  1.00  0.78  0.55  0.33  0.50  0.68  0.85  0.72  0.59  0.46  0.64  0.82  1.00  1.00  1.00  1.00  1.00  1.00
1.00  1.00  1.00  1.00  1.00  1.00  1.00  0.78  0.55  0.33  0.50  0.68  0.85  0.72  0.59  0.46  0.64  0.82  1.00  1.00  1.00  1.00  1.00  1.00
1.00  1.00  1.00  1.00  1.00  1.00  1.00  0.78  0.55  0.33  0.50  0.68  0.85  0.72  0.59  0.46  0.64  0.82  1.00  1.00  1.00  1.00  1.00  1.00
1.00  1.00  1.00  1.00  1.00  1.00  1.00  0.78  0.55  0.33  0.50  0.68  0.85  0.72  0.59  0.46  0.64  0.82  1.00  1.00  1.00  1.00  1.00  1.00
1.00  1.00  1.00  1.00  1.00  1.00  1.00  0.78  0.55  0.33  0.50  0.68  0.85  0.72  0.59  0.46  0.64  0.82  1.00  1.00  1.00  1.00  1.00  1.00
1.00  1.00  1.00  1.00  1.00  1.00  1.00  0.78  0.55  0.33  0.50  0.68  0.85  0.72  0.59  0.46  0.64  0.82  1.00  1.00  1.00  1.00  1.00  1.00
1.00  1.00  1.00  1.00  1.00  1.00  1.00  0.78  0.55  0.33  0.50  0.68  0.85  0.72  0.59  0.46  0.64  0.82  1.00  1.00  1.00  1.00  1.00  1.00
1.00  1.00  1.00  1.00  1.00  1.00  1.00  0.78  0.55  0.33  0.50  0.68  0.85  0.72  0.59  0.46  0.64  0.82  1.00  1.00  1.00  1.00  1.00  1.00
1.00  1.00  1.00  1.00  1.00  1.00  1.00  0.78  0.55  0.33  0.50  0.68  0.85  0.72  0.59  0.46  0.64  0.82  1.00  1.00  1.00  1.00  1.00  1.00
1.00  1.00  1.00  1.00  1.00  1.00  1.00  0.78  0.55  0.33  0.50  0.68  0.85  0.72  0.59  0.46  0.64  0.82  1.00  1.00  1.00  1.00  1.00  1.00
1.00  1.00  1.00  1.00  1.00  1.00  1.00  0.78  0.55  0.33  0.50  0.68  0.85  0.72  0.59  0.46  0.64  0.82  1.00  1.00  1.00  1.00  1.00  1.00
1.00  1.00  1.00  1.00  1.00  1.00  1.00  0.78  0.55  0.33  0.50  0.68  0.85  0.72  0.59  0.46  0.64  0.82  1.00  1.00  1.00  1.00  1.00  1.00
1.00  1.00  1.00  1.00  1.00  1.00  1.00  0.78  0.55  0.33  0.50  0.68  0.85  0.72  0.59  0.46  0.64  0.82  1.00  1.00  1.00  1.00  1.00  1.00
1.00  1.00  1.00  1.00  1.00  1.00  1.00  0.78  0.55  0.33  0.50  0.68  0.85  0.72  0.59  0.46  0.64  0.82  1.00  1.00  1.00  1.00  1.00  1.00
1.00  1.00  1.00  1.00  1.00  1.00  1.00  0.78  0.55  0.33  0.50  0.68  0.85  0.72  0.59  0.46  0.64  0.82  1.00  1.00  1.00  1.00  1.00  1.00
1.00  1.00  1.00  1.00  1.00  1.00  1.00  0.78  0.55  0.33  0.50  0.68  0.85  0.72  0.59  0.46  0.64  0.82  1.00  1.00  1.00  1.00  1.00  1.00
$ ilon ilat of the cell. lon: 7.6, 33.6
5   5
$ sizes of the cell in km
    37.064       41.780       48.388       57.897       52.968       48.906       44.478       48.906       52.968       57.897       48.388       41.780       37.064       41.780       48.388       57.897       52.968       48.906       44.478       48.906       52.968       57.897       48.388       41.780
$ mean alpha: 0.680807775321
$ mean beta: 0.830754279734
$alpha by ik, ith
1.00  1.00  1.00  1.00  1.00  1.00  1.00  0.67  0.33  0.00  0.13  0.27  0.40  0.28  0.16  0.04  0.36  0.68  1.00  1.00  1.00  1.00  1.00  1.00
1.00  1.00  1.00  1.00  1.00  1.00  1.00  0.67  0.33  0.00  0.13  0.27  0.40  0.28  0.16  0.04  0.36  0.68  1.00  1.00  1.00  1.00  1.00  1.00
1.00  1.00  1.00  1.00  1.00  1.00  1.00  0.67  0.33  0.00  0.13  0.27  0.40  0.28  0.16  0.04  0.36  0.68  1.00  1.00  1.00  1.00  1.00  1.00
1.00  1.00  1.00  1.00  1.00  1.00  1.00  0.67  0.33  0.00  0.13  0.27  0.40  0.28  0.16  0.04  0.36  0.68  1.00  1.00  1.00  1.00  1.00  1.00
1.00  1.00  1.00  1.00  1.00  1.00  1.00  0.67  0.33  0.00  0.13  0.27  0.40  0.28  0.16  0.04  0.36  0.68  1.00  1.00  1.00  1.00  1.00  1.00
1.00  1.00  1.00  1.00  1.00  1.00  1.00  0.67  0.33  0.00  0.13  0.27  0.40  0.28  0.16  0.04  0.36  0.68  1.00  1.00  1.00  1.00  1.00  1.00
1.00  1.00  1.00  1.00  1.00  1.00  1.00  0.67  0.33  0.00  0.13  0.27  0.40  0.28  0.16  0.04  0.36  0.68  1.00  1.00  1.00  1.00  1.00  1.00
1.00  1.00  1.00  1.00  1.00  1.00  1.00  0.67  0.33  0.00  0.13  0.27  0.40  0.28  0.16  0.04  0.36  0.68  1.00  1.00  1.00  1.00  1.00  1.00
1.00  1.00  1.00  1.00  1.00  1.00  1.00  0.67  0.33  0.00  0.13  0.27  0.40  0.28  0.16  0.04  0.36  0.68  1.00  1.00  1.00  1.00  1.00  1.00
1.00  1.00  1.00  1.00  1.00  1.00  1.00  0.67  0.33  0.00  0.13  0.27  0.40  0.28  0.16  0.04  0.36  0.68  1.00  1.00  1.00  1.00  1.00  1.00
1.00  1.00  1.00  1.00  1.00  1.00  1.00  0.67  0.33  0.00  0.13  0.27  0.40  0.28  0.16  0.04  0.36  0.68  1.00  1.00  1.00  1.00  1.00  1.00
1.00  1.00  1.00  1.00  1.00  1.00  1.00  0.67  0.33  0.00  0.13  0.27  0.40  0.28  0.16  0.04  0.36  0.68  1.00  1.00  1.00  1.00  1.00  1.00
1.00  1.00  1.00  1.00  1.00  1.00  1.00  0.67  0.33  0.00  0.13  0.27  0.40  0.28  0.16  0.04  0.36  0.68  1.00  1.00  1.00  1.00  1.00  1.00
1.00  1.00  1.00  1.00  1.00  1.00  1.00  0.67  0.33  0.00  0.13  0.27  0.40  0.28  0.16  0.04  0.36  0.68  1.00  1.00  1.00  1.00  1.00  1.00
1.00  1.00  1.00  1.00  1.00  1.00  1.00  0.67  0.33  0.00  0.13  0.27  0.40  0.28  0.16  0.04  0.36  0.68  1.00  1.00  1.00  1.00  1.00  1.00
1.00  1.00  1.00  1.00  1.00  1.00  1.00  0.67  0.33  0.00  0.13  0.27  0.40  0.28  0.16  0.04  0.36  0.68  1.00  1.00  1.00  1.00  1.00  1.00
1.00  1.00  1.00  1.00  1.00  1.00  1.00  0.67  0.33  0.00  0.13  0.27  0.40  0.28  0.16  0.04  0.36  0.68  1.00  1.00  1.00  1.00  1.00  1.00
1.00  1.00  1.00  1.00  1.00  1.00  1.00  0.67  0.33  0.00  0.13  0.27  0.40  0.28  0.16  0.04  0.36  0.68  1.00  1.00  1.00  1.00  1.00  1.00
1.00  1.00  1.00  1.00  1.00  1.00  1.00  0.67  0.33  0.00  0.13  0.27  0.40  0.28  0.16  0.04  0.36  0.68  1.00  1.00  1.00  1.00  1.00  1.00
1.00  1.00  1.00  1.00  1.00  1.00  1.00  0.67  0.33  0.00  0.13  0.27  0.40  0.28  0.16  0.04  0.36  0.68  1.00  1.00  1.00  1.00  1.00  1.00
1.00  1.00  1.00  1.00  1.00  1.00  1.00  0.67  0.33  0.00  0.13  0.27  0.40  0.28  0.16  0.04  0.36  0.68  1.00  1.00  1.00  1.00  1.00  1.00
1.00  1.00  1.00  1.00  1.00  1.00  1.00  0.67  0.33  0.00  0.13  0.27  0.40  0.28  0.16  0.04  0.36  0.68  1.00  1.00  1.00  1.00  1.00  1.00
1.00  1.00  1.00  1.00  1.00  1.00  1.00  0.67  0.33  0.00  0.13  0.27  0.40  0.28  0.16  0.04  0.36  0.68  1.00  1.00  1.00  1.00  1.00  1.00
1.00  1.00  1.00  1.00  1.00  1.00  1.00  0.67  0.33  0.00  0.13  0.27  0.40  0.28  0.16  0.04  0.36  0.68  1.00  1.00  1.00  1.00  1.00  1.00
1.00  1.00  1.00  1.00  1.00  1.00  1.00  0.67  0.33  0.00  0.13  0.27  0.40  0.28  0.16  0.04  0.36  0.68  1.00  1.00  1.00  1.00  1.00  1.00
$beta by ik, ith
1.00  1.00  1.00  1.00  1.00  1.00  1.00  0.78  0.55  0.33  0.50  0.68  0.85  0.72  0.59  0.46  0.64  0.82  1.00  1.00  1.00  1.00  1.00  1.00
1.00  1.00  1.00  1.00  1.00  1.00  1.00  0.78  0.55  0.33  0.50  0.68  0.85  0.72  0.59  0.46  0.64  0.82  1.00  1.00  1.00  1.00  1.00  1.00
1.00  1.00  1.00  1.00  1.00  1.00  1.00  0.78  0.55  0.33  0.50  0.68  0.85  0.72  0.59  0.46  0.64  0.82  1.00  1.00  1.00  1.00  1.00  1.00
1.00  1.00  1.00  1.00  1.00  1.00  1.00  0.78  0.55  0.33  0.50  0.68  0.85  0.72  0.59  0.46  0.64  0.82  1.00  1.00  1.00  1.00  1.00  1.00
1.00  1.00  1.00  1.00  1.00  1.00  1.00  0.78  0.55  0.33  0.50  0.68  0.85  0.72  0.59  0.46  0.64  0.82  1.00  1.00  1.00  1.00  1.00  1.00
1.00  1.00  1.00  1.00  1.00  1.00  1.00  0.78  0.55  0.33  0.50  0.68  0.85  0.72  0.59  0.46  0.64  0.82  1.00  1.00  1.00  1.00  1.00  1.00
1.00  1.00  1.00  1.00  1.00  1.00  1.00  0.78  0.55  0.33  0.50  0.68  0.85  0.72  0.59  0.46  0.64  0.82  1.00  1.00  1.00  1.00  1.00  1.00
1.00  1.00  1.00  1.00  1.00  1.00  1.00  0.78  0.55  0.33  0.50  0.68  0.85  0.72  0.59  0.46  0.64  0.82  1.00  1.00  1.00  1.00  1.00  1.00
1.00  1.00  1.00  1.00  1.00  1.00  1.00  0.78  0.55  0.33  0.50  0.68  0.85  0.72  0.59  0.46  0.64  0.82  1.00  1.00  1.00  1.00  1.00  1.00
1.00  1.00  1.00  1.00  1.00  1.00  1.00  0.78  0.55  0.33  0.50  0.68  0.85  0.72  0.59  0.46  0.64  0.82  1.00  1.00  1.00  1.00  1.00  1.00
1.00  1.00  1.00  1.00  1.00  1.00  1.00  0.78  0.55  0.33  0.50  0.68  0.85  0.72  0.59  0.46  0.64  0.82  1.00  1.00  1.00  1.00  1.00  1.00
1.00  1.00  1.00  1.00  1.00  1.00  1.00  0.78  0.55  0.33  0.50  0.68  0.85  0.72  0.59  0.46  0.64  0.82  1.00  1.00  1.00  1.00  1.00  1.00
1.00  1.00  1.00  1.00  1.00  1.00  1.00  0.78  0.55  0.33  0.50  0.68  0.85  0.72  0.59  0.46  0.64  0.82  1.00  1.00  1.00  1.00  1.00  1.00
1.00  1.00  1.00  1.00  1.00  1.00  1.00  0.78  0.55  0.33  0.50  0.68  0.85  0.72  0.59  0.46  0.64  0.82  1.00  1.00  1.00  1.00  1.00  1.00
1.00  1.00  1.00  1.00  1.00  1.00  1.00  0.78  0.55  0.33  0.50  0.68  0.85  0.72  0.59  0.46  0.64  0.82  1.00  1.00  1.00  1.00  1.00  1.00
1.00  1.00  1.00  1.00  1.00  1.00  1.00  0.78  0.55  0.33  0.50  0.68  0.85  0.72  0.59  0.46  0.64  0.82  1.00  1.00  1.00  1.00  1.00  1.00
1.00  1.00  1.00  1.00  1.00  1.00  1.00  0.78  0.55  0.33  0.50  0.68  0.85  0.72  0.59  0.46  0.64  0.82  1.00  1.00  1.00  1.00  1.00  1.00
1.00  1.00  1.00  1.00  1.00  1.00  1.00  0.78  0.55  0.33  0.50  0.68  0.85  0.72  0.59  0.46  0.64  0.82  1.00  1.00  1.00  1.00  1.00  1.00
1.00  1.00  1.00  1.00  1.00  1.00  1.00  0.78  0.55  0.33  0.50  0.68  0.85  0.72  0.59  0.46  0.64  0.82  1.00  1.00  1.00  1.00  1.00  1.00
1.00  1.00  1.00  1.00  1.00  1.00  1.00  0.78  0.55  0.33  0.50  0.68  0.85  0.72  0.59  0.46  0.64  0.82  1.00  1.00  1.00  1.00  1.00  1.00
1.00  1.00  1.00  1.00  1.00  1.00  1.00  0.78  0.55  0.33  0.50  0.68  0.85  0.72  0.59  0.46  0.64  0.82  1.00  1.00  1.00  1.00  1.00  1.00
1.00  1.00  1.00  1.00  1.00  1.00  1.00  0.78  0.55  0.33  0.50  0.68  0.85  0.72  0.59  0.46  0.64  0.82  1.00  1.00  1.00  1.00  1.00  1.00
1.00  1.00  1.00  1.00  1.00  1.00  1.00  0.78  0.55  0.33  0.50  0.68  0.85  0.72  0.59  0.46  0.64  0.82  1.00  1.00  1.00  1.00  1.00  1.00
1.00  1.00  1.00  1.00  1.00  1.00  1.00  0.78  0.55  0.33  0.50  0.68  0.85  0.72  0.59  0.46  0.64  0.82  1.00  1.00  1.00  1.00  1.00  1.00
1.00  1.00  1.00  1.00  1.00  1.00  1.00  0.78  0.55  0.33  0.50  0.68  0.85  0.72  0.59  0.46  0.64  0.82  1.00  1.00  1.00  1.00  1.00  1.00
$ ilon ilat of the cell. lon: 7.6, 34.0
5   6
$ sizes of the cell in km
    36.891       41.604       48.236       57.786       52.921       48.895       44.478       48.895       52.921       57.786       48.236       41.604       36.891       41.604       48.236       57.786       52.921       48.895       44.478       48.895       52.921       57.786       48.236       41.604
$ mean alpha: 0.680807775321
$ mean beta: 0.830754279734
$alpha by ik, ith
1.00  1.00  1.00  1.00  1.00  1.00  1.00  0.67  0.33  0.00  0.13  0.27  0.40  0.28  0.16  0.04  0.36  0.68  1.00  1.00  1.00  1.00  1.00  1.00
1.00  1.00  1.00  1.00  1.00  1.00  1.00  0.67  0.33  0.00  0.13  0.27  0.40  0.28  0.16  0.04  0.36  0.68  1.00  1.00  1.00  1.00  1.00  1.00
1.00  1.00  1.00  1.00  1.00  1.00  1.00  0.67  0.33  0.00  0.13  0.27  0.40  0.28  0.16  0.04  0.36  0.68  1.00  1.00  1.00  1.00  1.00  1.00
1.00  1.00  1.00  1.00  1.00  1.00  1.00  0.67  0.33  0.00  0.13  0.27  0.40  0.28  0.16  0.04  0.36  0.68  1.00  1.00  1.00  1.00  1.00  1.00
1.00  1.00  1.00  1.00  1.00  1.00  1.00  0.67  0.33  0.00  0.13  0.27  0.40  0.28  0.16  0.04  0.36  0.68  1.00  1.00  1.00  1.00  1.00  1.00
1.00  1.00  1.00  1.00  1.00  1.00  1.00  0.67  0.33  0.00  0.13  0.27  0.40  0.28  0.16  0.04  0.36  0.68  1.00  1.00  1.00  1.00  1.00  1.00
1.00  1.00  1.00  1.00  1.00  1.00  1.00  0.67  0.33  0.00  0.13  0.27  0.40  0.28  0.16  0.04  0.36  0.68  1.00  1.00  1.00  1.00  1.00  1.00
1.00  1.00  1.00  1.00  1.00  1.00  1.00  0.67  0.33  0.00  0.13  0.27  0.40  0.28  0.16  0.04  0.36  0.68  1.00  1.00  1.00  1.00  1.00  1.00
1.00  1.00  1.00  1.00  1.00  1.00  1.00  0.67  0.33  0.00  0.13  0.27  0.40  0.28  0.16  0.04  0.36  0.68  1.00  1.00  1.00  1.00  1.00  1.00
1.00  1.00  1.00  1.00  1.00  1.00  1.00  0.67  0.33  0.00  0.13  0.27  0.40  0.28  0.16  0.04  0.36  0.68  1.00  1.00  1.00  1.00  1.00  1.00
1.00  1.00  1.00  1.00  1.00  1.00  1.00  0.67  0.33  0.00  0.13  0.27  0.40  0.28  0.16  0.04  0.36  0.68  1.00  1.00  1.00  1.00  1.00  1.00
1.00  1.00  1.00  1.00  1.00  1.00  1.00  0.67  0.33  0.00  0.13  0.27  0.40  0.28  0.16  0.04  0.36  0.68  1.00  1.00  1.00  1.00  1.00  1.00
1.00  1.00  1.00  1.00  1.00  1.00  1.00  0.67  0.33  0.00  0.13  0.27  0.40  0.28  0.16  0.04  0.36  0.68  1.00  1.00  1.00  1.00  1.00  1.00
1.00  1.00  1.00  1.00  1.00  1.00  1.00  0.67  0.33  0.00  0.13  0.27  0.40  0.28  0.16  0.04  0.36  0.68  1.00  1.00  1.00  1.00  1.00  1.00
1.00  1.00  1.00  1.00  1.00  1.00  1.00  0.67  0.33  0.00  0.13  0.27  0.40  0.28  0.16  0.04  0.36  0.68  1.00  1.00  1.00  1.00  1.00  1.00
1.00  1.00  1.00  1.00  1.00  1.00  1.00  0.67  0.33  0.00  0.13  0.27  0.40  0.28  0.16  0.04  0.36  0.68  1.00  1.00  1.00  1.00  1.00  1.00
1.00  1.00  1.00  1.00  1.00  1.00  1.00  0.67  0.33  0.00  0.13  0.27  0.40  0.28  0.16  0.04  0.36  0.68  1.00  1.00  1.00  1.00  1.00  1.00
1.00  1.00  1.00  1.00  1.00  1.00  1.00  0.67  0.33  0.00  0.13  0.27  0.40  0.28  0.16  0.04  0.36  0.68  1.00  1.00  1.00  1.00  1.00  1.00
1.00  1.00  1.00  1.00  1.00  1.00  1.00  0.67  0.33  0.00  0.13  0.27  0.40  0.28  0.16  0.04  0.36  0.68  1.00  1.00  1.00  1.00  1.00  1.00
1.00  1.00  1.00  1.00  1.00  1.00  1.00  0.67  0.33  0.00  0.13  0.27  0.40  0.28  0.16  0.04  0.36  0.68  1.00  1.00  1.00  1.00  1.00  1.00
1.00  1.00  1.00  1.00  1.00  1.00  1.00  0.67  0.33  0.00  0.13  0.27  0.40  0.28  0.16  0.04  0.36  0.68  1.00  1.00  1.00  1.00  1.00  1.00
1.00  1.00  1.00  1.00  1.00  1.00  1.00  0.67  0.33  0.00  0.13  0.27  0.40  0.28  0.16  0.04  0.36  0.68  1.00  1.00  1.00  1.00  1.00  1.00
1.00  1.00  1.00  1.00  1.00  1.00  1.00  0.67  0.33  0.00  0.13  0.27  0.40  0.28  0.16  0.04  0.36  0.68  1.00  1.00  1.00  1.00  1.00  1.00
1.00  1.00  1.00  1.00  1.00  1.00  1.00  0.67  0.33  0.00  0.13  0.27  0.40  0.28  0.16  0.04  0.36  0.68  1.00  1.00  1.00  1.00  1.00  1.00
1.00  1.00  1.00  1.00  1.00  1.00  1.00  0.67  0.33  0.00  0.13  0.27  0.40  0.28  0.16  0.04  0.36  0.68  1.00  1.00  1.00  1.00  1.00  1.00
$beta by ik, ith
1.00  1.00  1.00  1.00  1.00  1.00  1.00  0.78  0.55  0.33  0.50  0.68  0.85  0.72  0.59  0.46  0.64  0.82  1.00  1.00  1.00  1.00  1.00  1.00
1.00  1.00  1.00  1.00  1.00  1.00  1.00  0.78  0.55  0.33  0.50  0.68  0.85  0.72  0.59  0.46  0.64  0.82  1.00  1.00  1.00  1.00  1.00  1.00
1.00  1.00  1.00  1.00  1.00  1.00  1.00  0.78  0.55  0.33  0.50  0.68  0.85  0.72  0.59  0.46  0.64  0.82  1.00  1.00  1.00  1.00  1.00  1.00
1.00  1.00  1.00  1.00  1.00  1.00  1.00  0.78  0.55  0.33  0.50  0.68  0.85  0.72  0.59  0.46  0.64  0.82  1.00  1.00  1.00  1.00  1.00  1.00
1.00  1.00  1.00  1.00  1.00  1.00  1.00  0.78  0.55  0.33  0.50  0.68  0.85  0.72  0.59  0.46  0.64  0.82  1.00  1.00  1.00  1.00  1.00  1.00
1.00  1.00  1.00  1.00  1.00  1.00  1.00  0.78  0.55  0.33  0.50  0.68  0.85  0.72  0.59  0.46  0.64  0.82  1.00  1.00  1.00  1.00  1.00  1.00
1.00  1.00  1.00  1.00  1.00  1.00  1.00  0.78  0.55  0.33  0.50  0.68  0.85  0.72  0.59  0.46  0.64  0.82  1.00  1.00  1.00  1.00  1.00  1.00
1.00  1.00  1.00  1.00  1.00  1.00  1.00  0.78  0.55  0.33  0.50  0.68  0.85  0.72  0.59  0.46  0.64  0.82  1.00  1.00  1.00  1.00  1.00  1.00
1.00  1.00  1.00  1.00  1.00  1.00  1.00  0.78  0.55  0.33  0.50  0.68  0.85  0.72  0.59  0.46  0.64  0.82  1.00  1.00  1.00  1.00  1.00  1.00
1.00  1.00  1.00  1.00  1.00  1.00  1.00  0.78  0.55  0.33  0.50  0.68  0.85  0.72  0.59  0.46  0.64  0.82  1.00  1.00  1.00  1.00  1.00  1.00
1.00  1.00  1.00  1.00  1.00  1.00  1.00  0.78  0.55  0.33  0.50  0.68  0.85  0.72  0.59  0.46  0.64  0.82  1.00  1.00  1.00  1.00  1.00  1.00
1.00  1.00  1.00  1.00  1.00  1.00  1.00  0.78  0.55  0.33  0.50  0.68  0.85  0.72  0.59  0.46  0.64  0.82  1.00  1.00  1.00  1.00  1.00  1.00
1.00  1.00  1.00  1.00  1.00  1.00  1.00  0.78  0.55  0.33  0.50  0.68  0.85  0.72  0.59  0.46  0.64  0.82  1.00  1.00  1.00  1.00  1.00  1.00
1.00  1.00  1.00  1.00  1.00  1.00  1.00  0.78  0.55  0.33  0.50  0.68  0.85  0.72  0.59  0.46  0.64  0.82  1.00  1.00  1.00  1.00  1.00  1.00
1.00  1.00  1.00  1.00  1.00  1.00  1.00  0.78  0.55  0.33  0.50  0.68  0.85  0.72  0.59  0.46  0.64  0.82  1.00  1.00  1.00  1.00  1.00  1.00
1.00  1.00  1.00  1.00  1.00  1.00  1.00  0.78  0.55  0.33  0.50  0.68  0.85  0.72  0.59  0.46  0.64  0.82  1.00  1.00  1.00  1.00  1.00  1.00
1.00  1.00  1.00  1.00  1.00  1.00  1.00  0.78  0.55  0.33  0.50  0.68  0.85  0.72  0.59  0.46  0.64  0.82  1.00  1.00  1.00  1.00  1.00  1.00
1.00  1.00  1.00  1.00  1.00  1.00  1.00  0.78  0.55  0.33  0.50  0.68  0.85  0.72  0.59  0.46  0.64  0.82  1.00  1.00  1.00  1.00  1.00  1.00
1.00  1.00  1.00  1.00  1.00  1.00  1.00  0.78  0.55  0.33  0.50  0.68  0.85  0.72  0.59  0.46  0.64  0.82  1.00  1.00  1.00  1.00  1.00  1.00
1.00  1.00  1.00  1.00  1.00  1.00  1.00  0.78  0.55  0.33  0.50  0.68  0.85  0.72  0.59  0.46  0.64  0.82  1.00  1.00  1.00  1.00  1.00  1.00
1.00  1.00  1.00  1.00  1.00  1.00  1.00  0.78  0.55  0.33  0.50  0.68  0.85  0.72  0.59  0.46  0.64  0.82  1.00  1.00  1.00  1.00  1.00  1.00
1.00  1.00  1.00  1.00  1.00  1.00  1.00  0.78  0.55  0.33  0.50  0.68  0.85  0.72  0.59  0.46  0.64  0.82  1.00  1.00  1.00  1.00  1.00  1.00
1.00  1.00  1.00  1.00  1.00  1.00  1.00  0.78  0.55  0.33  0.50  0.68  0.85  0.72  0.59  0.46  0.64  0.82  1.00  1.00  1.00  1.00  1.00  1.00
1.00  1.00  1.00  1.00  1.00  1.00  1.00  0.78  0.55  0.33  0.50  0.68  0.85  0.72  0.59  0.46  0.64  0.82  1.00  1.00  1.00  1.00  1.00  1.00
1.00  1.00  1.00  1.00  1.00  1.00  1.00  0.78  0.55  0.33  0.50  0.68  0.85  0.72  0.59  0.46  0.64  0.82  1.00  1.00  1.00  1.00  1.00  1.00
$ ilon ilat of the cell. lon: 7.6, 34.4
5   7
$ sizes of the cell in km
    36.717       41.426       48.083       57.675       52.875       48.884       44.478       48.884       52.875       57.675       48.083       41.426       36.717       41.426       48.083       57.675       52.875       48.884       44.478       48.884       52.875       57.675       48.083       41.426
$ mean alpha: 0.680807775321
$ mean beta: 0.830754279734
$alpha by ik, ith
1.00  1.00  1.00  1.00  1.00  1.00  1.00  0.67  0.33  0.00  0.13  0.27  0.40  0.28  0.16  0.04  0.36  0.68  1.00  1.00  1.00  1.00  1.00  1.00
1.00  1.00  1.00  1.00  1.00  1.00  1.00  0.67  0.33  0.00  0.13  0.27  0.40  0.28  0.16  0.04  0.36  0.68  1.00  1.00  1.00  1.00  1.00  1.00
1.00  1.00  1.00  1.00  1.00  1.00  1.00  0.67  0.33  0.00  0.13  0.27  0.40  0.28  0.16  0.04  0.36  0.68  1.00  1.00  1.00  1.00  1.00  1.00
1.00  1.00  1.00  1.00  1.00  1.00  1.00  0.67  0.33  0.00  0.13  0.27  0.40  0.28  0.16  0.04  0.36  0.68  1.00  1.00  1.00  1.00  1.00  1.00
1.00  1.00  1.00  1.00  1.00  1.00  1.00  0.67  0.33  0.00  0.13  0.27  0.40  0.28  0.16  0.04  0.36  0.68  1.00  1.00  1.00  1.00  1.00  1.00
1.00  1.00  1.00  1.00  1.00  1.00  1.00  0.67  0.33  0.00  0.13  0.27  0.40  0.28  0.16  0.04  0.36  0.68  1.00  1.00  1.00  1.00  1.00  1.00
1.00  1.00  1.00  1.00  1.00  1.00  1.00  0.67  0.33  0.00  0.13  0.27  0.40  0.28  0.16  0.04  0.36  0.68  1.00  1.00  1.00  1.00  1.00  1.00
1.00  1.00  1.00  1.00  1.00  1.00  1.00  0.67  0.33  0.00  0.13  0.27  0.40  0.28  0.16  0.04  0.36  0.68  1.00  1.00  1.00  1.00  1.00  1.00
1.00  1.00  1.00  1.00  1.00  1.00  1.00  0.67  0.33  0.00  0.13  0.27  0.40  0.28  0.16  0.04  0.36  0.68  1.00  1.00  1.00  1.00  1.00  1.00
1.00  1.00  1.00  1.00  1.00  1.00  1.00  0.67  0.33  0.00  0.13  0.27  0.40  0.28  0.16  0.04  0.36  0.68  1.00  1.00  1.00  1.00  1.00  1.00
1.00  1.00  1.00  1.00  1.00  1.00  1.00  0.67  0.33  0.00  0.13  0.27  0.40  0.28  0.16  0.04  0.36  0.68  1.00  1.00  1.00  1.00  1.00  1.00
1.00  1.00  1.00  1.00  1.00  1.00  1.00  0.67  0.33  0.00  0.13  0.27  0.40  0.28  0.16  0.04  0.36  0.68  1.00  1.00  1.00  1.00  1.00  1.00
1.00  1.00  1.00  1.00  1.00  1.00  1.00  0.67  0.33  0.00  0.13  0.27  0.40  0.28  0.16  0.04  0.36  0.68  1.00  1.00  1.00  1.00  1.00  1.00
1.00  1.00  1.00  1.00  1.00  1.00  1.00  0.67  0.33  0.00  0.13  0.27  0.40  0.28  0.16  0.04  0.36  0.68  1.00  1.00  1.00  1.00  1.00  1.00
1.00  1.00  1.00  1.00  1.00  1.00  1.00  0.67  0.33  0.00  0.13  0.27  0.40  0.28  0.16  0.04  0.36  0.68  1.00  1.00  1.00  1.00  1.00  1.00
1.00  1.00  1.00  1.00  1.00  1.00  1.00  0.67  0.33  0.00  0.13  0.27  0.40  0.28  0.16  0.04  0.36  0.68  1.00  1.00  1.00  1.00  1.00  1.00
1.00  1.00  1.00  1.00  1.00  1.00  1.00  0.67  0.33  0.00  0.13  0.27  0.40  0.28  0.16  0.04  0.36  0.68  1.00  1.00  1.00  1.00  1.00  1.00
1.00  1.00  1.00  1.00  1.00  1.00  1.00  0.67  0.33  0.00  0.13  0.27  0.40  0.28  0.16  0.04  0.36  0.68  1.00  1.00  1.00  1.00  1.00  1.00
1.00  1.00  1.00  1.00  1.00  1.00  1.00  0.67  0.33  0.00  0.13  0.27  0.40  0.28  0.16  0.04  0.36  0.68  1.00  1.00  1.00  1.00  1.00  1.00
1.00  1.00  1.00  1.00  1.00  1.00  1.00  0.67  0.33  0.00  0.13  0.27  0.40  0.28  0.16  0.04  0.36  0.68  1.00  1.00  1.00  1.00  1.00  1.00
1.00  1.00  1.00  1.00  1.00  1.00  1.00  0.67  0.33  0.00  0.13  0.27  0.40  0.28  0.16  0.04  0.36  0.68  1.00  1.00  1.00  1.00  1.00  1.00
1.00  1.00  1.00  1.00  1.00  1.00  1.00  0.67  0.33  0.00  0.13  0.27  0.40  0.28  0.16  0.04  0.36  0.68  1.00  1.00  1.00  1.00  1.00  1.00
1.00  1.00  1.00  1.00  1.00  1.00  1.00  0.67  0.33  0.00  0.13  0.27  0.40  0.28  0.16  0.04  0.36  0.68  1.00  1.00  1.00  1.00  1.00  1.00
1.00  1.00  1.00  1.00  1.00  1.00  1.00  0.67  0.33  0.00  0.13  0.27  0.40  0.28  0.16  0.04  0.36  0.68  1.00  1.00  1.00  1.00  1.00  1.00
1.00  1.00  1.00  1.00  1.00  1.00  1.00  0.67  0.33  0.00  0.13  0.27  0.40  0.28  0.16  0.04  0.36  0.68  1.00  1.00  1.00  1.00  1.00  1.00
$beta by ik, ith
1.00  1.00  1.00  1.00  1.00  1.00  1.00  0.78  0.55  0.33  0.50  0.68  0.85  0.72  0.59  0.46  0.64  0.82  1.00  1.00  1.00  1.00  1.00  1.00
1.00  1.00  1.00  1.00  1.00  1.00  1.00  0.78  0.55  0.33  0.50  0.68  0.85  0.72  0.59  0.46  0.64  0.82  1.00  1.00  1.00  1.00  1.00  1.00
1.00  1.00  1.00  1.00  1.00  1.00  1.00  0.78  0.55  0.33  0.50  0.68  0.85  0.72  0.59  0.46  0.64  0.82  1.00  1.00  1.00  1.00  1.00  1.00
1.00  1.00  1.00  1.00  1.00  1.00  1.00  0.78  0.55  0.33  0.50  0.68  0.85  0.72  0.59  0.46  0.64  0.82  1.00  1.00  1.00  1.00  1.00  1.00
1.00  1.00  1.00  1.00  1.00  1.00  1.00  0.78  0.55  0.33  0.50  0.68  0.85  0.72  0.59  0.46  0.64  0.82  1.00  1.00  1.00  1.00  1.00  1.00
1.00  1.00  1.00  1.00  1.00  1.00  1.00  0.78  0.55  0.33  0.50  0.68  0.85  0.72  0.59  0.46  0.64  0.82  1.00  1.00  1.00  1.00  1.00  1.00
1.00  1.00  1.00  1.00  1.00  1.00  1.00  0.78  0.55  0.33  0.50  0.68  0.85  0.72  0.59  0.46  0.64  0.82  1.00  1.00  1.00  1.00  1.00  1.00
1.00  1.00  1.00  1.00  1.00  1.00  1.00  0.78  0.55  0.33  0.50  0.68  0.85  0.72  0.59  0.46  0.64  0.82  1.00  1.00  1.00  1.00  1.00  1.00
1.00  1.00  1.00  1.00  1.00  1.00  1.00  0.78  0.55  0.33  0.50  0.68  0.85  0.72  0.59  0.46  0.64  0.82  1.00  1.00  1.00  1.00  1.00  1.00
1.00  1.00  1.00  1.00  1.00  1.00  1.00  0.78  0.55  0.33  0.50  0.68  0.85  0.72  0.59  0.46  0.64  0.82  1.00  1.00  1.00  1.00  1.00  1.00
1.00  1.00  1.00  1.00  1.00  1.00  1.00  0.78  0.55  0.33  0.50  0.68  0.85  0.72  0.59  0.46  0.64  0.82  1.00  1.00  1.00  1.00  1.00  1.00
1.00  1.00  1.00  1.00  1.00  1.00  1.00  0.78  0.55  0.33  0.50  0.68  0.85  0.72  0.59  0.46  0.64  0.82  1.00  1.00  1.00  1.00  1.00  1.00
1.00  1.00  1.00  1.00  1.00  1.00  1.00  0.78  0.55  0.33  0.50  0.68  0.85  0.72  0.59  0.46  0.64  0.82  1.00  1.00  1.00  1.00  1.00  1.00
1.00  1.00  1.00  1.00  1.00  1.00  1.00  0.78  0.55  0.33  0.50  0.68  0.85  0.72  0.59  0.46  0.64  0.82  1.00  1.00  1.00  1.00  1.00  1.00
1.00  1.00  1.00  1.00  1.00  1.00  1.00  0.78  0.55  0.33  0.50  0.68  0.85  0.72  0.59  0.46  0.64  0.82  1.00  1.00  1.00  1.00  1.00  1.00
1.00  1.00  1.00  1.00  1.00  1.00  1.00  0.78  0.55  0.33  0.50  0.68  0.85  0.72  0.59  0.46  0.64  0.82  1.00  1.00  1.00  1.00  1.00  1.00
1.00  1.00  1.00  1.00  1.00  1.00  1.00  0.78  0.55  0.33  0.50  0.68  0.85  0.72  0.59  0.46  0.64  0.82  1.00  1.00  1.00  1.00  1.00  1.00
1.00  1.00  1.00  1.00  1.00  1.00  1.00  0.78  0.55  0.33  0.50  0.68  0.85  0.72  0.59  0.46  0.64  0.82  1.00  1.00  1.00  1.00  1.00  1.00
1.00  1.00  1.00  1.00  1.00  1.00  1.00  0.78  0.55  0.33  0.50  0.68  0.85  0.72  0.59  0.46  0.64  0.82  1.00  1.00  1.00  1.00  1.00  1.00
1.00  1.00  1.00  1.00  1.00  1.00  1.00  0.78  0.55  0.33  0.50  0.68  0.85  0.72  0.59  0.46  0.64  0.82  1.00  1.00  1.00  1.00  1.00  1.00
1.00  1.00  1.00  1.00  1.00  1.00  1.00  0.78  0.55  0.33  0.50  0.68  0.85  0.72  0.59  0.46  0.64  0.82  1.00  1.00  1.00  1.00  1.00  1.00
1.00  1.00  1.00  1.00  1.00  1.00  1.00  0.78  0.55  0.33  0.50  0.68  0.85  0.72  0.59  0.46  0.64  0.82  1.00  1.00  1.00  1.00  1.00  1.00
1.00  1.00  1.00  1.00  1.00  1.00  1.00  0.78  0.55  0.33  0.50  0.68  0.85  0.72  0.59  0.46  0.64  0.82  1.00  1.00  1.00  1.00  1.00  1.00
1.00  1.00  1.00  1.00  1.00  1.00  1.00  0.78  0.55  0.33  0.50  0.68  0.85  0.72  0.59  0.46  0.64  0.82  1.00  1.00  1.00  1.00  1.00  1.00
1.00  1.00  1.00  1.00  1.00  1.00  1.00  0.78  0.55  0.33  0.50  0.68  0.85  0.72  0.59  0.46  0.64  0.82  1.00  1.00  1.00  1.00  1.00  1.00
$ ilon ilat of the cell. lon: 7.6, 34.8
5   8
$ sizes of the cell in km
    36.541       41.246       47.928       57.563       52.828       48.874       44.478       48.874       52.828       57.563       47.928       41.246       36.541       41.246       47.928       57.563       52.828       48.874       44.478       48.874       52.828       57.563       47.928       41.246
$ mean alpha: 0.680807775321
$ mean beta: 0.830754279734
$alpha by ik, ith
1.00  1.00  1.00  1.00  1.00  1.00  1.00  0.67  0.33  0.00  0.13  0.27  0.40  0.28  0.16  0.04  0.36  0.68  1.00  1.00  1.00  1.00  1.00  1.00
1.00  1.00  1.00  1.00  1.00  1.00  1.00  0.67  0.33  0.00  0.13  0.27  0.40  0.28  0.16  0.04  0.36  0.68  1.00  1.00  1.00  1.00  1.00  1.00
1.00  1.00  1.00  1.00  1.00  1.00  1.00  0.67  0.33  0.00  0.13  0.27  0.40  0.28  0.16  0.04  0.36  0.68  1.00  1.00  1.00  1.00  1.00  1.00
1.00  1.00  1.00  1.00  1.00  1.00  1.00  0.67  0.33  0.00  0.13  0.27  0.40  0.28  0.16  0.04  0.36  0.68  1.00  1.00  1.00  1.00  1.00  1.00
1.00  1.00  1.00  1.00  1.00  1.00  1.00  0.67  0.33  0.00  0.13  0.27  0.40  0.28  0.16  0.04  0.36  0.68  1.00  1.00  1.00  1.00  1.00  1.00
1.00  1.00  1.00  1.00  1.00  1.00  1.00  0.67  0.33  0.00  0.13  0.27  0.40  0.28  0.16  0.04  0.36  0.68  1.00  1.00  1.00  1.00  1.00  1.00
1.00  1.00  1.00  1.00  1.00  1.00  1.00  0.67  0.33  0.00  0.13  0.27  0.40  0.28  0.16  0.04  0.36  0.68  1.00  1.00  1.00  1.00  1.00  1.00
1.00  1.00  1.00  1.00  1.00  1.00  1.00  0.67  0.33  0.00  0.13  0.27  0.40  0.28  0.16  0.04  0.36  0.68  1.00  1.00  1.00  1.00  1.00  1.00
1.00  1.00  1.00  1.00  1.00  1.00  1.00  0.67  0.33  0.00  0.13  0.27  0.40  0.28  0.16  0.04  0.36  0.68  1.00  1.00  1.00  1.00  1.00  1.00
1.00  1.00  1.00  1.00  1.00  1.00  1.00  0.67  0.33  0.00  0.13  0.27  0.40  0.28  0.16  0.04  0.36  0.68  1.00  1.00  1.00  1.00  1.00  1.00
1.00  1.00  1.00  1.00  1.00  1.00  1.00  0.67  0.33  0.00  0.13  0.27  0.40  0.28  0.16  0.04  0.36  0.68  1.00  1.00  1.00  1.00  1.00  1.00
1.00  1.00  1.00  1.00  1.00  1.00  1.00  0.67  0.33  0.00  0.13  0.27  0.40  0.28  0.16  0.04  0.36  0.68  1.00  1.00  1.00  1.00  1.00  1.00
1.00  1.00  1.00  1.00  1.00  1.00  1.00  0.67  0.33  0.00  0.13  0.27  0.40  0.28  0.16  0.04  0.36  0.68  1.00  1.00  1.00  1.00  1.00  1.00
1.00  1.00  1.00  1.00  1.00  1.00  1.00  0.67  0.33  0.00  0.13  0.27  0.40  0.28  0.16  0.04  0.36  0.68  1.00  1.00  1.00  1.00  1.00  1.00
1.00  1.00  1.00  1.00  1.00  1.00  1.00  0.67  0.33  0.00  0.13  0.27  0.40  0.28  0.16  0.04  0.36  0.68  1.00  1.00  1.00  1.00  1.00  1.00
1.00  1.00  1.00  1.00  1.00  1.00  1.00  0.67  0.33  0.00  0.13  0.27  0.40  0.28  0.16  0.04  0.36  0.68  1.00  1.00  1.00  1.00  1.00  1.00
1.00  1.00  1.00  1.00  1.00  1.00  1.00  0.67  0.33  0.00  0.13  0.27  0.40  0.28  0.16  0.04  0.36  0.68  1.00  1.00  1.00  1.00  1.00  1.00
1.00  1.00  1.00  1.00  1.00  1.00  1.00  0.67  0.33  0.00  0.13  0.27  0.40  0.28  0.16  0.04  0.36  0.68  1.00  1.00  1.00  1.00  1.00  1.00
1.00  1.00  1.00  1.00  1.00  1.00  1.00  0.67  0.33  0.00  0.13  0.27  0.40  0.28  0.16  0.04  0.36  0.68  1.00  1.00  1.00  1.00  1.00  1.00
1.00  1.00  1.00  1.00  1.00  1.00  1.00  0.67  0.33  0.00  0.13  0.27  0.40  0.28  0.16  0.04  0.36  0.68  1.00  1.00  1.00  1.00  1.00  1.00
1.00  1.00  1.00  1.00  1.00  1.00  1.00  0.67  0.33  0.00  0.13  0.27  0.40  0.28  0.16  0.04  0.36  0.68  1.00  1.00  1.00  1.00  1.00  1.00
1.00  1.00  1.00  1.00  1.00  1.00  1.00  0.67  0.33  0.00  0.13  0.27  0.40  0.28  0.16  0.04  0.36  0.68  1.00  1.00  1.00  1.00  1.00  1.00
1.00  1.00  1.00  1.00  1.00  1.00  1.00  0.67  0.33  0.00  0.13  0.27  0.40  0.28  0.16  0.04  0.36  0.68  1.00  1.00  1.00  1.00  1.00  1.00
1.00  1.00  1.00  1.00  1.00  1.00  1.00  0.67  0.33  0.00  0.13  0.27  0.40  0.28  0.16  0.04  0.36  0.68  1.00  1.00  1.00  1.00  1.00  1.00
1.00  1.00  1.00  1.00  1.00  1.00  1.00  0.67  0.33  0.00  0.13  0.27  0.40  0.28  0.16  0.04  0.36  0.68  1.00  1.00  1.00  1.00  1.00  1.00
$beta by ik, ith
1.00  1.00  1.00  1.00  1.00  1.00  1.00  0.78  0.55  0.33  0.50  0.68  0.85  0.72  0.59  0.46  0.64  0.82  1.00  1.00  1.00  1.00  1.00  1.00
1.00  1.00  1.00  1.00  1.00  1.00  1.00  0.78  0.55  0.33  0.50  0.68  0.85  0.72  0.59  0.46  0.64  0.82  1.00  1.00  1.00  1.00  1.00  1.00
1.00  1.00  1.00  1.00  1.00  1.00  1.00  0.78  0.55  0.33  0.50  0.68  0.85  0.72  0.59  0.46  0.64  0.82  1.00  1.00  1.00  1.00  1.00  1.00
1.00  1.00  1.00  1.00  1.00  1.00  1.00  0.78  0.55  0.33  0.50  0.68  0.85  0.72  0.59  0.46  0.64  0.82  1.00  1.00  1.00  1.00  1.00  1.00
1.00  1.00  1.00  1.00  1.00  1.00  1.00  0.78  0.55  0.33  0.50  0.68  0.85  0.72  0.59  0.46  0.64  0.82  1.00  1.00  1.00  1.00  1.00  1.00
1.00  1.00  1.00  1.00  1.00  1.00  1.00  0.78  0.55  0.33  0.50  0.68  0.85  0.72  0.59  0.46  0.64  0.82  1.00  1.00  1.00  1.00  1.00  1.00
1.00  1.00  1.00  1.00  1.00  1.00  1.00  0.78  0.55  0.33  0.50  0.68  0.85  0.72  0.59  0.46  0.64  0.82  1.00  1.00  1.00  1.00  1.00  1.00
1.00  1.00  1.00  1.00  1.00  1.00  1.00  0.78  0.55  0.33  0.50  0.68  0.85  0.72  0.59  0.46  0.64  0.82  1.00  1.00  1.00  1.00  1.00  1.00
1.00  1.00  1.00  1.00  1.00  1.00  1.00  0.78  0.55  0.33  0.50  0.68  0.85  0.72  0.59  0.46  0.64  0.82  1.00  1.00  1.00  1.00  1.00  1.00
1.00  1.00  1.00  1.00  1.00  1.00  1.00  0.78  0.55  0.33  0.50  0.68  0.85  0.72  0.59  0.46  0.64  0.82  1.00  1.00  1.00  1.00  1.00  1.00
1.00  1.00  1.00  1.00  1.00  1.00  1.00  0.78  0.55  0.33  0.50  0.68  0.85  0.72  0.59  0.46  0.64  0.82  1.00  1.00  1.00  1.00  1.00  1.00
1.00  1.00  1.00  1.00  1.00  1.00  1.00  0.78  0.55  0.33  0.50  0.68  0.85  0.72  0.59  0.46  0.64  0.82  1.00  1.00  1.00  1.00  1.00  1.00
1.00  1.00  1.00  1.00  1.00  1.00  1.00  0.78  0.55  0.33  0.50  0.68  0.85  0.72  0.59  0.46  0.64  0.82  1.00  1.00  1.00  1.00  1.00  1.00
1.00  1.00  1.00  1.00  1.00  1.00  1.00  0.78  0.55  0.33  0.50  0.68  0.85  0.72  0.59  0.46  0.64  0.82  1.00  1.00  1.00  1.00  1.00  1.00
1.00  1.00  1.00  1.00  1.00  1.00  1.00  0.78  0.55  0.33  0.50  0.68  0.85  0.72  0.59  0.46  0.64  0.82  1.00  1.00  1.00  1.00  1.00  1.00
1.00  1.00  1.00  1.00  1.00  1.00  1.00  0.78  0.55  0.33  0.50  0.68  0.85  0.72  0.59  0.46  0.64  0.82  1.00  1.00  1.00  1.00  1.00  1.00
1.00  1.00  1.00  1.00  1.00  1.00  1.00  0.78  0.55  0.33  0.50  0.68  0.85  0.72  0.59  0.46  0.64  0.82  1.00  1.00  1.00  1.00  1.00  1.00
1.00  1.00  1.00  1.00  1.00  1.00  1.00  0.78  0.55  0.33  0.50  0.68  0.85  0.72  0.59  0.46  0.64  0.82  1.00  1.00  1.00  1.00  1.00  1.00
1.00  1.00  1.00  1.00  1.00  1.00  1.00  0.78  0.55  0.33  0.50  0.68  0.85  0.72  0.59  0.46  0.64  0.82  1.00  1.00  1.00  1.00  1.00  1.00
1.00  1.00  1.00  1.00  1.00  1.00  1.00  0.78  0.55  0.33  0.50  0.68  0.85  0.72  0.59  0.46  0.64  0.82  1.00  1.00  1.00  1.00  1.00  1.00
1.00  1.00  1.00  1.00  1.00  1.00  1.00  0.78  0.55  0.33  0.50  0.68  0.85  0.72  0.59  0.46  0.64  0.82  1.00  1.00  1.00  1.00  1.00  1.00
1.00  1.00  1.00  1.00  1.00  1.00  1.00  0.78  0.55  0.33  0.50  0.68  0.85  0.72  0.59  0.46  0.64  0.82  1.00  1.00  1.00  1.00  1.00  1.00
1.00  1.00  1.00  1.00  1.00  1.00  1.00  0.78  0.55  0.33  0.50  0.68  0.85  0.72  0.59  0.46  0.64  0.82  1.00  1.00  1.00  1.00  1.00  1.00
1.00  1.00  1.00  1.00  1.00  1.00  1.00  0.78  0.55  0.33  0.50  0.68  0.85  0.72  0.59  0.46  0.64  0.82  1.00  1.00  1.00  1.00  1.00  1.00
1.00  1.00  1.00  1.00  1.00  1.00  1.00  0.78  0.55  0.33  0.50  0.68  0.85  0.72  0.59  0.46  0.64  0.82  1.00  1.00  1.00  1.00  1.00  1.00
$ ilon ilat of the cell. lon: 7.6, 35.2
5   9
$ sizes of the cell in km
    36.363       41.065       47.772       57.450       52.781       48.863       44.478       48.863       52.781       57.450       47.772       41.065       36.363       41.065       47.772       57.450       52.781       48.863       44.478       48.863       52.781       57.450       47.772       41.065
$ mean alpha: 0.680807775321
$ mean beta: 0.830754279734
$alpha by ik, ith
1.00  1.00  1.00  1.00  1.00  1.00  1.00  0.67  0.33  0.00  0.13  0.27  0.40  0.28  0.16  0.04  0.36  0.68  1.00  1.00  1.00  1.00  1.00  1.00
1.00  1.00  1.00  1.00  1.00  1.00  1.00  0.67  0.33  0.00  0.13  0.27  0.40  0.28  0.16  0.04  0.36  0.68  1.00  1.00  1.00  1.00  1.00  1.00
1.00  1.00  1.00  1.00  1.00  1.00  1.00  0.67  0.33  0.00  0.13  0.27  0.40  0.28  0.16  0.04  0.36  0.68  1.00  1.00  1.00  1.00  1.00  1.00
1.00  1.00  1.00  1.00  1.00  1.00  1.00  0.67  0.33  0.00  0.13  0.27  0.40  0.28  0.16  0.04  0.36  0.68  1.00  1.00  1.00  1.00  1.00  1.00
1.00  1.00  1.00  1.00  1.00  1.00  1.00  0.67  0.33  0.00  0.13  0.27  0.40  0.28  0.16  0.04  0.36  0.68  1.00  1.00  1.00  1.00  1.00  1.00
1.00  1.00  1.00  1.00  1.00  1.00  1.00  0.67  0.33  0.00  0.13  0.27  0.40  0.28  0.16  0.04  0.36  0.68  1.00  1.00  1.00  1.00  1.00  1.00
1.00  1.00  1.00  1.00  1.00  1.00  1.00  0.67  0.33  0.00  0.13  0.27  0.40  0.28  0.16  0.04  0.36  0.68  1.00  1.00  1.00  1.00  1.00  1.00
1.00  1.00  1.00  1.00  1.00  1.00  1.00  0.67  0.33  0.00  0.13  0.27  0.40  0.28  0.16  0.04  0.36  0.68  1.00  1.00  1.00  1.00  1.00  1.00
1.00  1.00  1.00  1.00  1.00  1.00  1.00  0.67  0.33  0.00  0.13  0.27  0.40  0.28  0.16  0.04  0.36  0.68  1.00  1.00  1.00  1.00  1.00  1.00
1.00  1.00  1.00  1.00  1.00  1.00  1.00  0.67  0.33  0.00  0.13  0.27  0.40  0.28  0.16  0.04  0.36  0.68  1.00  1.00  1.00  1.00  1.00  1.00
1.00  1.00  1.00  1.00  1.00  1.00  1.00  0.67  0.33  0.00  0.13  0.27  0.40  0.28  0.16  0.04  0.36  0.68  1.00  1.00  1.00  1.00  1.00  1.00
1.00  1.00  1.00  1.00  1.00  1.00  1.00  0.67  0.33  0.00  0.13  0.27  0.40  0.28  0.16  0.04  0.36  0.68  1.00  1.00  1.00  1.00  1.00  1.00
1.00  1.00  1.00  1.00  1.00  1.00  1.00  0.67  0.33  0.00  0.13  0.27  0.40  0.28  0.16  0.04  0.36  0.68  1.00  1.00  1.00  1.00  1.00  1.00
1.00  1.00  1.00  1.00  1.00  1.00  1.00  0.67  0.33  0.00  0.13  0.27  0.40  0.28  0.16  0.04  0.36  0.68  1.00  1.00  1.00  1.00  1.00  1.00
1.00  1.00  1.00  1.00  1.00  1.00  1.00  0.67  0.33  0.00  0.13  0.27  0.40  0.28  0.16  0.04  0.36  0.68  1.00  1.00  1.00  1.00  1.00  1.00
1.00  1.00  1.00  1.00  1.00  1.00  1.00  0.67  0.33  0.00  0.13  0.27  0.40  0.28  0.16  0.04  0.36  0.68  1.00  1.00  1.00  1.00  1.00  1.00
1.00  1.00  1.00  1.00  1.00  1.00  1.00  0.67  0.33  0.00  0.13  0.27  0.40  0.28  0.16  0.04  0.36  0.68  1.00  1.00  1.00  1.00  1.00  1.00
1.00  1.00  1.00  1.00  1.00  1.00  1.00  0.67  0.33  0.00  0.13  0.27  0.40  0.28  0.16  0.04  0.36  0.68  1.00  1.00  1.00  1.00  1.00  1.00
1.00  1.00  1.00  1.00  1.00  1.00  1.00  0.67  0.33  0.00  0.13  0.27  0.40  0.28  0.16  0.04  0.36  0.68  1.00  1.00  1.00  1.00  1.00  1.00
1.00  1.00  1.00  1.00  1.00  1.00  1.00  0.67  0.33  0.00  0.13  0.27  0.40  0.28  0.16  0.04  0.36  0.68  1.00  1.00  1.00  1.00  1.00  1.00
1.00  1.00  1.00  1.00  1.00  1.00  1.00  0.67  0.33  0.00  0.13  0.27  0.40  0.28  0.16  0.04  0.36  0.68  1.00  1.00  1.00  1.00  1.00  1.00
1.00  1.00  1.00  1.00  1.00  1.00  1.00  0.67  0.33  0.00  0.13  0.27  0.40  0.28  0.16  0.04  0.36  0.68  1.00  1.00  1.00  1.00  1.00  1.00
1.00  1.00  1.00  1.00  1.00  1.00  1.00  0.67  0.33  0.00  0.13  0.27  0.40  0.28  0.16  0.04  0.36  0.68  1.00  1.00  1.00  1.00  1.00  1.00
1.00  1.00  1.00  1.00  1.00  1.00  1.00  0.67  0.33  0.00  0.13  0.27  0.40  0.28  0.16  0.04  0.36  0.68  1.00  1.00  1.00  1.00  1.00  1.00
1.00  1.00  1.00  1.00  1.00  1.00  1.00  0.67  0.33  0.00  0.13  0.27  0.40  0.28  0.16  0.04  0.36  0.68  1.00  1.00  1.00  1.00  1.00  1.00
$beta by ik, ith
1.00  1.00  1.00  1.00  1.00  1.00  1.00  0.78  0.55  0.33  0.50  0.68  0.85  0.72  0.59  0.46  0.64  0.82  1.00  1.00  1.00  1.00  1.00  1.00
1.00  1.00  1.00  1.00  1.00  1.00  1.00  0.78  0.55  0.33  0.50  0.68  0.85  0.72  0.59  0.46  0.64  0.82  1.00  1.00  1.00  1.00  1.00  1.00
1.00  1.00  1.00  1.00  1.00  1.00  1.00  0.78  0.55  0.33  0.50  0.68  0.85  0.72  0.59  0.46  0.64  0.82  1.00  1.00  1.00  1.00  1.00  1.00
1.00  1.00  1.00  1.00  1.00  1.00  1.00  0.78  0.55  0.33  0.50  0.68  0.85  0.72  0.59  0.46  0.64  0.82  1.00  1.00  1.00  1.00  1.00  1.00
1.00  1.00  1.00  1.00  1.00  1.00  1.00  0.78  0.55  0.33  0.50  0.68  0.85  0.72  0.59  0.46  0.64  0.82  1.00  1.00  1.00  1.00  1.00  1.00
1.00  1.00  1.00  1.00  1.00  1.00  1.00  0.78  0.55  0.33  0.50  0.68  0.85  0.72  0.59  0.46  0.64  0.82  1.00  1.00  1.00  1.00  1.00  1.00
1.00  1.00  1.00  1.00  1.00  1.00  1.00  0.78  0.55  0.33  0.50  0.68  0.85  0.72  0.59  0.46  0.64  0.82  1.00  1.00  1.00  1.00  1.00  1.00
1.00  1.00  1.00  1.00  1.00  1.00  1.00  0.78  0.55  0.33  0.50  0.68  0.85  0.72  0.59  0.46  0.64  0.82  1.00  1.00  1.00  1.00  1.00  1.00
1.00  1.00  1.00  1.00  1.00  1.00  1.00  0.78  0.55  0.33  0.50  0.68  0.85  0.72  0.59  0.46  0.64  0.82  1.00  1.00  1.00  1.00  1.00  1.00
1.00  1.00  1.00  1.00  1.00  1.00  1.00  0.78  0.55  0.33  0.50  0.68  0.85  0.72  0.59  0.46  0.64  0.82  1.00  1.00  1.00  1.00  1.00  1.00
1.00  1.00  1.00  1.00  1.00  1.00  1.00  0.78  0.55  0.33  0.50  0.68  0.85  0.72  0.59  0.46  0.64  0.82  1.00  1.00  1.00  1.00  1.00  1.00
1.00  1.00  1.00  1.00  1.00  1.00  1.00  0.78  0.55  0.33  0.50  0.68  0.85  0.72  0.59  0.46  0.64  0.82  1.00  1.00  1.00  1.00  1.00  1.00
1.00  1.00  1.00  1.00  1.00  1.00  1.00  0.78  0.55  0.33  0.50  0.68  0.85  0.72  0.59  0.46  0.64  0.82  1.00  1.00  1.00  1.00  1.00  1.00
1.00  1.00  1.00  1.00  1.00  1.00  1.00  0.78  0.55  0.33  0.50  0.68  0.85  0.72  0.59  0.46  0.64  0.82  1.00  1.00  1.00  1.00  1.00  1.00
1.00  1.00  1.00  1.00  1.00  1.00  1.00  0.78  0.55  0.33  0.50  0.68  0.85  0.72  0.59  0.46  0.64  0.82  1.00  1.00  1.00  1.00  1.00  1.00
1.00  1.00  1.00  1.00  1.00  1.00  1.00  0.78  0.55  0.33  0.50  0.68  0.85  0.72  0.59  0.46  0.64  0.82  1.00  1.00  1.00  1.00  1.00  1.00
1.00  1.00  1.00  1.00  1.00  1.00  1.00  0.78  0.55  0.33  0.50  0.68  0.85  0.72  0.59  0.46  0.64  0.82  1.00  1.00  1.00  1.00  1.00  1.00
1.00  1.00  1.00  1.00  1.00  1.00  1.00  0.78  0.55  0.33  0.50  0.68  0.85  0.72  0.59  0.46  0.64  0.82  1.00  1.00  1.00  1.00  1.00  1.00
1.00  1.00  1.00  1.00  1.00  1.00  1.00  0.78  0.55  0.33  0.50  0.68  0.85  0.72  0.59  0.46  0.64  0.82  1.00  1.00  1.00  1.00  1.00  1.00
1.00  1.00  1.00  1.00  1.00  1.00  1.00  0.78  0.55  0.33  0.50  0.68  0.85  0.72  0.59  0.46  0.64  0.82  1.00  1.00  1.00  1.00  1.00  1.00
1.00  1.00  1.00  1.00  1.00  1.00  1.00  0.78  0.55  0.33  0.50  0.68  0.85  0.72  0.59  0.46  0.64  0.82  1.00  1.00  1.00  1.00  1.00  1.00
1.00  1.00  1.00  1.00  1.00  1.00  1.00  0.78  0.55  0.33  0.50  0.68  0.85  0.72  0.59  0.46  0.64  0.82  1.00  1.00  1.00  1.00  1.00  1.00
1.00  1.00  1.00  1.00  1.00  1.00  1.00  0.78  0.55  0.33  0.50  0.68  0.85  0.72  0.59  0.46  0.64  0.82  1.00  1.00  1.00  1.00  1.00  1.00
1.00  1.00  1.00  1.00  1.00  1.00  1.00  0.78  0.55  0.33  0.50  0.68  0.85  0.72  0.59  0.46  0.64  0.82  1.00  1.00  1.00  1.00  1.00  1.00
1.00  1.00  1.00  1.00  1.00  1.00  1.00  0.78  0.55  0.33  0.50  0.68  0.85  0.72  0.59  0.46  0.64  0.82  1.00  1.00  1.00  1.00  1.00  1.00
$ ilon ilat of the cell. lon: 7.6, 35.6
5   10
$ sizes of the cell in km
    36.183       40.881       47.614       57.337       52.733       48.852       44.478       48.852       52.733       57.337       47.614       40.881       36.183       40.881       47.614       57.337       52.733       48.852       44.478       48.852       52.733       57.337       47.614       40.881
$ mean alpha: 0.680807775321
$ mean beta: 0.830754279734
$alpha by ik, ith
1.00  1.00  1.00  1.00  1.00  1.00  1.00  0.67  0.33  0.00  0.13  0.27  0.40  0.28  0.16  0.04  0.36  0.68  1.00  1.00  1.00  1.00  1.00  1.00
1.00  1.00  1.00  1.00  1.00  1.00  1.00  0.67  0.33  0.00  0.13  0.27  0.40  0.28  0.16  0.04  0.36  0.68  1.00  1.00  1.00  1.00  1.00  1.00
1.00  1.00  1.00  1.00  1.00  1.00  1.00  0.67  0.33  0.00  0.13  0.27  0.40  0.28  0.16  0.04  0.36  0.68  1.00  1.00  1.00  1.00  1.00  1.00
1.00  1.00  1.00  1.00  1.00  1.00  1.00  0.67  0.33  0.00  0.13  0.27  0.40  0.28  0.16  0.04  0.36  0.68  1.00  1.00  1.00  1.00  1.00  1.00
1.00  1.00  1.00  1.00  1.00  1.00  1.00  0.67  0.33  0.00  0.13  0.27  0.40  0.28  0.16  0.04  0.36  0.68  1.00  1.00  1.00  1.00  1.00  1.00
1.00  1.00  1.00  1.00  1.00  1.00  1.00  0.67  0.33  0.00  0.13  0.27  0.40  0.28  0.16  0.04  0.36  0.68  1.00  1.00  1.00  1.00  1.00  1.00
1.00  1.00  1.00  1.00  1.00  1.00  1.00  0.67  0.33  0.00  0.13  0.27  0.40  0.28  0.16  0.04  0.36  0.68  1.00  1.00  1.00  1.00  1.00  1.00
1.00  1.00  1.00  1.00  1.00  1.00  1.00  0.67  0.33  0.00  0.13  0.27  0.40  0.28  0.16  0.04  0.36  0.68  1.00  1.00  1.00  1.00  1.00  1.00
1.00  1.00  1.00  1.00  1.00  1.00  1.00  0.67  0.33  0.00  0.13  0.27  0.40  0.28  0.16  0.04  0.36  0.68  1.00  1.00  1.00  1.00  1.00  1.00
1.00  1.00  1.00  1.00  1.00  1.00  1.00  0.67  0.33  0.00  0.13  0.27  0.40  0.28  0.16  0.04  0.36  0.68  1.00  1.00  1.00  1.00  1.00  1.00
1.00  1.00  1.00  1.00  1.00  1.00  1.00  0.67  0.33  0.00  0.13  0.27  0.40  0.28  0.16  0.04  0.36  0.68  1.00  1.00  1.00  1.00  1.00  1.00
1.00  1.00  1.00  1.00  1.00  1.00  1.00  0.67  0.33  0.00  0.13  0.27  0.40  0.28  0.16  0.04  0.36  0.68  1.00  1.00  1.00  1.00  1.00  1.00
1.00  1.00  1.00  1.00  1.00  1.00  1.00  0.67  0.33  0.00  0.13  0.27  0.40  0.28  0.16  0.04  0.36  0.68  1.00  1.00  1.00  1.00  1.00  1.00
1.00  1.00  1.00  1.00  1.00  1.00  1.00  0.67  0.33  0.00  0.13  0.27  0.40  0.28  0.16  0.04  0.36  0.68  1.00  1.00  1.00  1.00  1.00  1.00
1.00  1.00  1.00  1.00  1.00  1.00  1.00  0.67  0.33  0.00  0.13  0.27  0.40  0.28  0.16  0.04  0.36  0.68  1.00  1.00  1.00  1.00  1.00  1.00
1.00  1.00  1.00  1.00  1.00  1.00  1.00  0.67  0.33  0.00  0.13  0.27  0.40  0.28  0.16  0.04  0.36  0.68  1.00  1.00  1.00  1.00  1.00  1.00
1.00  1.00  1.00  1.00  1.00  1.00  1.00  0.67  0.33  0.00  0.13  0.27  0.40  0.28  0.16  0.04  0.36  0.68  1.00  1.00  1.00  1.00  1.00  1.00
1.00  1.00  1.00  1.00  1.00  1.00  1.00  0.67  0.33  0.00  0.13  0.27  0.40  0.28  0.16  0.04  0.36  0.68  1.00  1.00  1.00  1.00  1.00  1.00
1.00  1.00  1.00  1.00  1.00  1.00  1.00  0.67  0.33  0.00  0.13  0.27  0.40  0.28  0.16  0.04  0.36  0.68  1.00  1.00  1.00  1.00  1.00  1.00
1.00  1.00  1.00  1.00  1.00  1.00  1.00  0.67  0.33  0.00  0.13  0.27  0.40  0.28  0.16  0.04  0.36  0.68  1.00  1.00  1.00  1.00  1.00  1.00
1.00  1.00  1.00  1.00  1.00  1.00  1.00  0.67  0.33  0.00  0.13  0.27  0.40  0.28  0.16  0.04  0.36  0.68  1.00  1.00  1.00  1.00  1.00  1.00
1.00  1.00  1.00  1.00  1.00  1.00  1.00  0.67  0.33  0.00  0.13  0.27  0.40  0.28  0.16  0.04  0.36  0.68  1.00  1.00  1.00  1.00  1.00  1.00
1.00  1.00  1.00  1.00  1.00  1.00  1.00  0.67  0.33  0.00  0.13  0.27  0.40  0.28  0.16  0.04  0.36  0.68  1.00  1.00  1.00  1.00  1.00  1.00
1.00  1.00  1.00  1.00  1.00  1.00  1.00  0.67  0.33  0.00  0.13  0.27  0.40  0.28  0.16  0.04  0.36  0.68  1.00  1.00  1.00  1.00  1.00  1.00
1.00  1.00  1.00  1.00  1.00  1.00  1.00  0.67  0.33  0.00  0.13  0.27  0.40  0.28  0.16  0.04  0.36  0.68  1.00  1.00  1.00  1.00  1.00  1.00
$beta by ik, ith
1.00  1.00  1.00  1.00  1.00  1.00  1.00  0.78  0.55  0.33  0.50  0.68  0.85  0.72  0.59  0.46  0.64  0.82  1.00  1.00  1.00  1.00  1.00  1.00
1.00  1.00  1.00  1.00  1.00  1.00  1.00  0.78  0.55  0.33  0.50  0.68  0.85  0.72  0.59  0.46  0.64  0.82  1.00  1.00  1.00  1.00  1.00  1.00
1.00  1.00  1.00  1.00  1.00  1.00  1.00  0.78  0.55  0.33  0.50  0.68  0.85  0.72  0.59  0.46  0.64  0.82  1.00  1.00  1.00  1.00  1.00  1.00
1.00  1.00  1.00  1.00  1.00  1.00  1.00  0.78  0.55  0.33  0.50  0.68  0.85  0.72  0.59  0.46  0.64  0.82  1.00  1.00  1.00  1.00  1.00  1.00
1.00  1.00  1.00  1.00  1.00  1.00  1.00  0.78  0.55  0.33  0.50  0.68  0.85  0.72  0.59  0.46  0.64  0.82  1.00  1.00  1.00  1.00  1.00  1.00
1.00  1.00  1.00  1.00  1.00  1.00  1.00  0.78  0.55  0.33  0.50  0.68  0.85  0.72  0.59  0.46  0.64  0.82  1.00  1.00  1.00  1.00  1.00  1.00
1.00  1.00  1.00  1.00  1.00  1.00  1.00  0.78  0.55  0.33  0.50  0.68  0.85  0.72  0.59  0.46  0.64  0.82  1.00  1.00  1.00  1.00  1.00  1.00
1.00  1.00  1.00  1.00  1.00  1.00  1.00  0.78  0.55  0.33  0.50  0.68  0.85  0.72  0.59  0.46  0.64  0.82  1.00  1.00  1.00  1.00  1.00  1.00
1.00  1.00  1.00  1.00  1.00  1.00  1.00  0.78  0.55  0.33  0.50  0.68  0.85  0.72  0.59  0.46  0.64  0.82  1.00  1.00  1.00  1.00  1.00  1.00
1.00  1.00  1.00  1.00  1.00  1.00  1.00  0.78  0.55  0.33  0.50  0.68  0.85  0.72  0.59  0.46  0.64  0.82  1.00  1.00  1.00  1.00  1.00  1.00
1.00  1.00  1.00  1.00  1.00  1.00  1.00  0.78  0.55  0.33  0.50  0.68  0.85  0.72  0.59  0.46  0.64  0.82  1.00  1.00  1.00  1.00  1.00  1.00
1.00  1.00  1.00  1.00  1.00  1.00  1.00  0.78  0.55  0.33  0.50  0.68  0.85  0.72  0.59  0.46  0.64  0.82  1.00  1.00  1.00  1.00  1.00  1.00
1.00  1.00  1.00  1.00  1.00  1.00  1.00  0.78  0.55  0.33  0.50  0.68  0.85  0.72  0.59  0.46  0.64  0.82  1.00  1.00  1.00  1.00  1.00  1.00
1.00  1.00  1.00  1.00  1.00  1.00  1.00  0.78  0.55  0.33  0.50  0.68  0.85  0.72  0.59  0.46  0.64  0.82  1.00  1.00  1.00  1.00  1.00  1.00
1.00  1.00  1.00  1.00  1.00  1.00  1.00  0.78  0.55  0.33  0.50  0.68  0.85  0.72  0.59  0.46  0.64  0.82  1.00  1.00  1.00  1.00  1.00  1.00
1.00  1.00  1.00  1.00  1.00  1.00  1.00  0.78  0.55  0.33  0.50  0.68  0.85  0.72  0.59  0.46  0.64  0.82  1.00  1.00  1.00  1.00  1.00  1.00
1.00  1.00  1.00  1.00  1.00  1.00  1.00  0.78  0.55  0.33  0.50  0.68  0.85  0.72  0.59  0.46  0.64  0.82  1.00  1.00  1.00  1.00  1.00  1.00
1.00  1.00  1.00  1.00  1.00  1.00  1.00  0.78  0.55  0.33  0.50  0.68  0.85  0.72  0.59  0.46  0.64  0.82  1.00  1.00  1.00  1.00  1.00  1.00
1.00  1.00  1.00  1.00  1.00  1.00  1.00  0.78  0.55  0.33  0.50  0.68  0.85  0.72  0.59  0.46  0.64  0.82  1.00  1.00  1.00  1.00  1.00  1.00
1.00  1.00  1.00  1.00  1.00  1.00  1.00  0.78  0.55  0.33  0.50  0.68  0.85  0.72  0.59  0.46  0.64  0.82  1.00  1.00  1.00  1.00  1.00  1.00
1.00  1.00  1.00  1.00  1.00  1.00  1.00  0.78  0.55  0.33  0.50  0.68  0.85  0.72  0.59  0.46  0.64  0.82  1.00  1.00  1.00  1.00  1.00  1.00
1.00  1.00  1.00  1.00  1.00  1.00  1.00  0.78  0.55  0.33  0.50  0.68  0.85  0.72  0.59  0.46  0.64  0.82  1.00  1.00  1.00  1.00  1.00  1.00
1.00  1.00  1.00  1.00  1.00  1.00  1.00  0.78  0.55  0.33  0.50  0.68  0.85  0.72  0.59  0.46  0.64  0.82  1.00  1.00  1.00  1.00  1.00  1.00
1.00  1.00  1.00  1.00  1.00  1.00  1.00  0.78  0.55  0.33  0.50  0.68  0.85  0.72  0.59  0.46  0.64  0.82  1.00  1.00  1.00  1.00  1.00  1.00
1.00  1.00  1.00  1.00  1.00  1.00  1.00  0.78  0.55  0.33  0.50  0.68  0.85  0.72  0.59  0.46  0.64  0.82  1.00  1.00  1.00  1.00  1.00  1.00
$ ilon ilat of the cell. lon: 7.6, 36.0
5   11
$ sizes of the cell in km
    36.002       40.696       47.456       57.222       52.686       48.840       44.478       48.840       52.686       57.222       47.456       40.696       36.002       40.696       47.456       57.222       52.686       48.840       44.478       48.840       52.686       57.222       47.456       40.696
$ mean alpha: 0.680807775321
$ mean beta: 0.830754279734
$alpha by ik, ith
1.00  1.00  1.00  1.00  1.00  1.00  1.00  0.67  0.33  0.00  0.13  0.27  0.40  0.28  0.16  0.04  0.36  0.68  1.00  1.00  1.00  1.00  1.00  1.00
1.00  1.00  1.00  1.00  1.00  1.00  1.00  0.67  0.33  0.00  0.13  0.27  0.40  0.28  0.16  0.04  0.36  0.68  1.00  1.00  1.00  1.00  1.00  1.00
1.00  1.00  1.00  1.00  1.00  1.00  1.00  0.67  0.33  0.00  0.13  0.27  0.40  0.28  0.16  0.04  0.36  0.68  1.00  1.00  1.00  1.00  1.00  1.00
1.00  1.00  1.00  1.00  1.00  1.00  1.00  0.67  0.33  0.00  0.13  0.27  0.40  0.28  0.16  0.04  0.36  0.68  1.00  1.00  1.00  1.00  1.00  1.00
1.00  1.00  1.00  1.00  1.00  1.00  1.00  0.67  0.33  0.00  0.13  0.27  0.40  0.28  0.16  0.04  0.36  0.68  1.00  1.00  1.00  1.00  1.00  1.00
1.00  1.00  1.00  1.00  1.00  1.00  1.00  0.67  0.33  0.00  0.13  0.27  0.40  0.28  0.16  0.04  0.36  0.68  1.00  1.00  1.00  1.00  1.00  1.00
1.00  1.00  1.00  1.00  1.00  1.00  1.00  0.67  0.33  0.00  0.13  0.27  0.40  0.28  0.16  0.04  0.36  0.68  1.00  1.00  1.00  1.00  1.00  1.00
1.00  1.00  1.00  1.00  1.00  1.00  1.00  0.67  0.33  0.00  0.13  0.27  0.40  0.28  0.16  0.04  0.36  0.68  1.00  1.00  1.00  1.00  1.00  1.00
1.00  1.00  1.00  1.00  1.00  1.00  1.00  0.67  0.33  0.00  0.13  0.27  0.40  0.28  0.16  0.04  0.36  0.68  1.00  1.00  1.00  1.00  1.00  1.00
1.00  1.00  1.00  1.00  1.00  1.00  1.00  0.67  0.33  0.00  0.13  0.27  0.40  0.28  0.16  0.04  0.36  0.68  1.00  1.00  1.00  1.00  1.00  1.00
1.00  1.00  1.00  1.00  1.00  1.00  1.00  0.67  0.33  0.00  0.13  0.27  0.40  0.28  0.16  0.04  0.36  0.68  1.00  1.00  1.00  1.00  1.00  1.00
1.00  1.00  1.00  1.00  1.00  1.00  1.00  0.67  0.33  0.00  0.13  0.27  0.40  0.28  0.16  0.04  0.36  0.68  1.00  1.00  1.00  1.00  1.00  1.00
1.00  1.00  1.00  1.00  1.00  1.00  1.00  0.67  0.33  0.00  0.13  0.27  0.40  0.28  0.16  0.04  0.36  0.68  1.00  1.00  1.00  1.00  1.00  1.00
1.00  1.00  1.00  1.00  1.00  1.00  1.00  0.67  0.33  0.00  0.13  0.27  0.40  0.28  0.16  0.04  0.36  0.68  1.00  1.00  1.00  1.00  1.00  1.00
1.00  1.00  1.00  1.00  1.00  1.00  1.00  0.67  0.33  0.00  0.13  0.27  0.40  0.28  0.16  0.04  0.36  0.68  1.00  1.00  1.00  1.00  1.00  1.00
1.00  1.00  1.00  1.00  1.00  1.00  1.00  0.67  0.33  0.00  0.13  0.27  0.40  0.28  0.16  0.04  0.36  0.68  1.00  1.00  1.00  1.00  1.00  1.00
1.00  1.00  1.00  1.00  1.00  1.00  1.00  0.67  0.33  0.00  0.13  0.27  0.40  0.28  0.16  0.04  0.36  0.68  1.00  1.00  1.00  1.00  1.00  1.00
1.00  1.00  1.00  1.00  1.00  1.00  1.00  0.67  0.33  0.00  0.13  0.27  0.40  0.28  0.16  0.04  0.36  0.68  1.00  1.00  1.00  1.00  1.00  1.00
1.00  1.00  1.00  1.00  1.00  1.00  1.00  0.67  0.33  0.00  0.13  0.27  0.40  0.28  0.16  0.04  0.36  0.68  1.00  1.00  1.00  1.00  1.00  1.00
1.00  1.00  1.00  1.00  1.00  1.00  1.00  0.67  0.33  0.00  0.13  0.27  0.40  0.28  0.16  0.04  0.36  0.68  1.00  1.00  1.00  1.00  1.00  1.00
1.00  1.00  1.00  1.00  1.00  1.00  1.00  0.67  0.33  0.00  0.13  0.27  0.40  0.28  0.16  0.04  0.36  0.68  1.00  1.00  1.00  1.00  1.00  1.00
1.00  1.00  1.00  1.00  1.00  1.00  1.00  0.67  0.33  0.00  0.13  0.27  0.40  0.28  0.16  0.04  0.36  0.68  1.00  1.00  1.00  1.00  1.00  1.00
[...]
0.40  0.36  0.31  0.26  0.51  0.75  1.00  1.00  1.00  1.00  1.00  1.00  1.00  1.00  1.00  1.00  1.00  1.00  1.00  0.80  0.60  0.40  0.40  0.40
0.40  0.36  0.31  0.26  0.51  0.75  1.00  1.00  1.00  1.00  1.00  1.00  1.00  1.00  1.00  1.00  1.00  1.00  1.00  0.80  0.60  0.40  0.40  0.40
0.40  0.36  0.31  0.26  0.51  0.75  1.00  1.00  1.00  1.00  1.00  1.00  1.00  1.00  1.00  1.00  1.00  1.00  1.00  0.80  0.60  0.40  0.40  0.40
0.40  0.36  0.31  0.26  0.51  0.75  1.00  1.00  1.00  1.00  1.00  1.00  1.00  1.00  1.00  1.00  1.00  1.00  1.00  0.80  0.60  0.40  0.40  0.40
0.40  0.36  0.31  0.26  0.51  0.75  1.00  1.00  1.00  1.00  1.00  1.00  1.00  1.00  1.00  1.00  1.00  1.00  1.00  0.80  0.60  0.40  0.40  0.40
0.40  0.36  0.31  0.26  0.51  0.75  1.00  1.00  1.00  1.00  1.00  1.00  1.00  1.00  1.00  1.00  1.00  1.00  1.00  0.80  0.60  0.40  0.40  0.40
0.40  0.36  0.31  0.26  0.51  0.75  1.00  1.00  1.00  1.00  1.00  1.00  1.00  1.00  1.00  1.00  1.00  1.00  1.00  0.80  0.60  0.40  0.40  0.40
0.40  0.36  0.31  0.26  0.51  0.75  1.00  1.00  1.00  1.00  1.00  1.00  1.00  1.00  1.00  1.00  1.00  1.00  1.00  0.80  0.60  0.40  0.40  0.40
$beta by ik, ith
0.40  0.36  0.31  0.26  0.51  0.75  1.00  1.00  1.00  1.00  1.00  1.00  1.00  1.00  1.00  1.00  1.00  1.00  1.00  0.81  0.62  0.43  0.42  0.41
0.40  0.36  0.31  0.26  0.51  0.75  1.00  1.00  1.00  1.00  1.00  1.00  1.00  1.00  1.00  1.00  1.00  1.00  1.00  0.81  0.62  0.43  0.42  0.41
0.40  0.36  0.31  0.26  0.51  0.75  1.00  1.00  1.00  1.00  1.00  1.00  1.00  1.00  1.00  1.00  1.00  1.00  1.00  0.81  0.62  0.43  0.42  0.41
0.40  0.36  0.31  0.26  0.51  0.75  1.00  1.00  1.00  1.00  1.00  1.00  1.00  1.00  1.00  1.00  1.00  1.00  1.00  0.81  0.62  0.43  0.42  0.41
0.40  0.36  0.31  0.26  0.51  0.75  1.00  1.00  1.00  1.00  1.00  1.00  1.00  1.00  1.00  1.00  1.00  1.00  1.00  0.81  0.62  0.43  0.42  0.41
0.40  0.36  0.31  0.26  0.51  0.75  1.00  1.00  1.00  1.00  1.00  1.00  1.00  1.00  1.00  1.00  1.00  1.00  1.00  0.81  0.62  0.43  0.42  0.41
0.40  0.36  0.31  0.26  0.51  0.75  1.00  1.00  1.00  1.00  1.00  1.00  1.00  1.00  1.00  1.00  1.00  1.00  1.00  0.81  0.62  0.43  0.42  0.41
0.40  0.36  0.31  0.26  0.51  0.75  1.00  1.00  1.00  1.00  1.00  1.00  1.00  1.00  1.00  1.00  1.00  1.00  1.00  0.81  0.62  0.43  0.42  0.41
0.40  0.36  0.31  0.26  0.51  0.75  1.00  1.00  1.00  1.00  1.00  1.00  1.00  1.00  1.00  1.00  1.00  1.00  1.00  0.81  0.62  0.43  0.42  0.41
0.40  0.36  0.31  0.26  0.51  0.75  1.00  1.00  1.00  1.00  1.00  1.00  1.00  1.00  1.00  1.00  1.00  1.00  1.00  0.81  0.62  0.43  0.42  0.41
0.40  0.36  0.31  0.26  0.51  0.75  1.00  1.00  1.00  1.00  1.00  1.00  1.00  1.00  1.00  1.00  1.00  1.00  1.00  0.81  0.62  0.43  0.42  0.41
0.40  0.36  0.31  0.26  0.51  0.75  1.00  1.00  1.00  1.00  1.00  1.00  1.00  1.00  1.00  1.00  1.00  1.00  1.00  0.81  0.62  0.43  0.42  0.41
0.40  0.36  0.31  0.26  0.51  0.75  1.00  1.00  1.00  1.00  1.00  1.00  1.00  1.00  1.00  1.00  1.00  1.00  1.00  0.81  0.62  0.43  0.42  0.41
0.40  0.36  0.31  0.26  0.51  0.75  1.00  1.00  1.00  1.00  1.00  1.00  1.00  1.00  1.00  1.00  1.00  1.00  1.00  0.81  0.62  0.43  0.42  0.41
0.40  0.36  0.31  0.26  0.51  0.75  1.00  1.00  1.00  1.00  1.00  1.00  1.00  1.00  1.00  1.00  1.00  1.00  1.00  0.81  0.62  0.43  0.42  0.41
0.40  0.36  0.31  0.26  0.51  0.75  1.00  1.00  1.00  1.00  1.00  1.00  1.00  1.00  1.00  1.00  1.00  1.00  1.00  0.81  0.62  0.43  0.42  0.41
0.40  0.36  0.31  0.26  0.51  0.75  1.00  1.00  1.00  1.00  1.00  1.00  1.00  1.00  1.00  1.00  1.00  1.00  1.00  0.81  0.62  0.43  0.42  0.41
0.40  0.36  0.31  0.26  0.51  0.75  1.00  1.00  1.00  1.00  1.00  1.00  1.00  1.00  1.00  1.00  1.00  1.00  1.00  0.81  0.62  0.43  0.42  0.41
0.40  0.36  0.31  0.26  0.51  0.75  1.00  1.00  1.00  1.00  1.00  1.00  1.00  1.00  1.00  1.00  1.00  1.00  1.00  0.81  0.62  0.43  0.42  0.41
0.40  0.36  0.31  0.26  0.51  0.75  1.00  1.00  1.00  1.00  1.00  1.00  1.00  1.00  1.00  1.00  1.00  1.00  1.00  0.81  0.62  0.43  0.42  0.41
0.40  0.36  0.31  0.26  0.51  0.75  1.00  1.00  1.00  1.00  1.00  1.00  1.00  1.00  1.00  1.00  1.00  1.00  1.00  0.81  0.62  0.43  0.42  0.41
0.40  0.36  0.31  0.26  0.51  0.75  1.00  1.00  1.00  1.00  1.00  1.00  1.00  1.00  1.00  1.00  1.00  1.00  1.00  0.81  0.62  0.43  0.42  0.41
0.40  0.36  0.31  0.26  0.51  0.75  1.00  1.00  1.00  1.00  1.00  1.00  1.00  1.00  1.00  1.00  1.00  1.00  1.00  0.81  0.62  0.43  0.42  0.41
0.40  0.36  0.31  0.26  0.51  0.75  1.00  1.00  1.00  1.00  1.00  1.00  1.00  1.00  1.00  1.00  1.00  1.00  1.00  0.81  0.62  0.43  0.42  0.41
0.40  0.36  0.31  0.26  0.51  0.75  1.00  1.00  1.00  1.00  1.00  1.00  1.00  1.00  1.00  1.00  1.00  1.00  1.00  0.81  0.62  0.43  0.42  0.41
$ ilon ilat of the cell. lon: 8.4, 36.0
7   11
$ sizes of the cell in km
    36.002       40.696       47.456       57.222       52.686       48.840       44.478       48.840       52.686       57.222       47.456       40.696       36.002       40.696       47.456       57.222       52.686       48.840       44.478       48.840       52.686       57.222       47.456       40.696
$ mean alpha: 0.758720909249
$ mean beta: 0.761874624771
$alpha by ik, ith
0.40  0.36  0.31  0.26  0.51  0.75  1.00  1.00  1.00  1.00  1.00  1.00  1.00  1.00  1.00  1.00  1.00  1.00  1.00  0.80  0.60  0.40  0.40  0.40
0.40  0.36  0.31  0.26  0.51  0.75  1.00  1.00  1.00  1.00  1.00  1.00  1.00  1.00  1.00  1.00  1.00  1.00  1.00  0.80  0.60  0.40  0.40  0.40
0.40  0.36  0.31  0.26  0.51  0.75  1.00  1.00  1.00  1.00  1.00  1.00  1.00  1.00  1.00  1.00  1.00  1.00  1.00  0.80  0.60  0.40  0.40  0.40
0.40  0.36  0.31  0.26  0.51  0.75  1.00  1.00  1.00  1.00  1.00  1.00  1.00  1.00  1.00  1.00  1.00  1.00  1.00  0.80  0.60  0.40  0.40  0.40
0.40  0.36  0.31  0.26  0.51  0.75  1.00  1.00  1.00  1.00  1.00  1.00  1.00  1.00  1.00  1.00  1.00  1.00  1.00  0.80  0.60  0.40  0.40  0.40
0.40  0.36  0.31  0.26  0.51  0.75  1.00  1.00  1.00  1.00  1.00  1.00  1.00  1.00  1.00  1.00  1.00  1.00  1.00  0.80  0.60  0.40  0.40  0.40
0.40  0.36  0.31  0.26  0.51  0.75  1.00  1.00  1.00  1.00  1.00  1.00  1.00  1.00  1.00  1.00  1.00  1.00  1.00  0.80  0.60  0.40  0.40  0.40
0.40  0.36  0.31  0.26  0.51  0.75  1.00  1.00  1.00  1.00  1.00  1.00  1.00  1.00  1.00  1.00  1.00  1.00  1.00  0.80  0.60  0.40  0.40  0.40
0.40  0.36  0.31  0.26  0.51  0.75  1.00  1.00  1.00  1.00  1.00  1.00  1.00  1.00  1.00  1.00  1.00  1.00  1.00  0.80  0.60  0.40  0.40  0.40
0.40  0.36  0.31  0.26  0.51  0.75  1.00  1.00  1.00  1.00  1.00  1.00  1.00  1.00  1.00  1.00  1.00  1.00  1.00  0.80  0.60  0.40  0.40  0.40
0.40  0.36  0.31  0.26  0.51  0.75  1.00  1.00  1.00  1.00  1.00  1.00  1.00  1.00  1.00  1.00  1.00  1.00  1.00  0.80  0.60  0.40  0.40  0.40
0.40  0.36  0.31  0.26  0.51  0.75  1.00  1.00  1.00  1.00  1.00  1.00  1.00  1.00  1.00  1.00  1.00  1.00  1.00  0.80  0.60  0.40  0.40  0.40
0.40  0.36  0.31  0.26  0.51  0.75  1.00  1.00  1.00  1.00  1.00  1.00  1.00  1.00  1.00  1.00  1.00  1.00  1.00  0.80  0.60  0.40  0.40  0.40
0.40  0.36  0.31  0.26  0.51  0.75  1.00  1.00  1.00  1.00  1.00  1.00  1.00  1.00  1.00  1.00  1.00  1.00  1.00  0.80  0.60  0.40  0.40  0.40
0.40  0.36  0.31  0.26  0.51  0.75  1.00  1.00  1.00  1.00  1.00  1.00  1.00  1.00  1.00  1.00  1.00  1.00  1.00  0.80  0.60  0.40  0.40  0.40
0.40  0.36  0.31  0.26  0.51  0.75  1.00  1.00  1.00  1.00  1.00  1.00  1.00  1.00  1.00  1.00  1.00  1.00  1.00  0.80  0.60  0.40  0.40  0.40
0.40  0.36  0.31  0.26  0.51  0.75  1.00  1.00  1.00  1.00  1.00  1.00  1.00  1.00  1.00  1.00  1.00  1.00  1.00  0.80  0.60  0.40  0.40  0.40
0.40  0.36  0.31  0.26  0.51  0.75  1.00  1.00  1.00  1.00  1.00  1.00  1.00  1.00  1.00  1.00  1.00  1.00  1.00  0.80  0.60  0.40  0.40  0.40
0.40  0.36  0.31  0.26  0.51  0.75  1.00  1.00  1.00  1.00  1.00  1.00  1.00  1.00  1.00  1.00  1.00  1.00  1.00  0.80  0.60  0.40  0.40  0.40
0.40  0.36  0.31  0.26  0.51  0.75  1.00  1.00  1.00  1.00  1.00  1.00  1.00  1.00  1.00  1.00  1.00  1.00  1.00  0.80  0.60  0.40  0.40  0.40
0.40  0.36  0.31  0.26  0.51  0.75  1.00  1.00  1.00  1.00  1.00  1.00  1.00  1.00  1.00  1.00  1.00  1.00  1.00  0.80  0.60  0.40  0.40  0.40
0.40  0.36  0.31  0.26  0.51  0.75  1.00  1.00  1.00  1.00  1.00  1.00  1.00  1.00  1.00  1.00  1.00  1.00  1.00  0.80  0.60  0.40  0.40  0.40
0.40  0.36  0.31  0.26  0.51  0.75  1.00  1.00  1.00  1.00  1.00  1.00  1.00  1.00  1.00  1.00  1.00  1.00  1.00  0.80  0.60  0.40  0.40  0.40
0.40  0.36  0.31  0.26  0.51  0.75  1.00  1.00  1.00  1.00  1.00  1.00  1.00  1.00  1.00  1.00  1.00  1.00  1.00  0.80  0.60  0.40  0.40  0.40
0.40  0.36  0.31  0.26  0.51  0.75  1.00  1.00  1.00  1.00  1.00  1.00  1.00  1.00  1.00  1.00  1.00  1.00  1.00  0.80  0.60  0.40  0.40  0.40
$beta by ik, ith
0.40  0.36  0.31  0.26  0.51  0.75  1.00  1.00  1.00  1.00  1.00  1.00  1.00  1.00  1.00  1.00  1.00  1.00  1.00  0.81  0.62  0.43  0.42  0.41
0.40  0.36  0.31  0.26  0.51  0.75  1.00  1.00  1.00  1.00  1.00  1.00  1.00  1.00  1.00  1.00  1.00  1.00  1.00  0.81  0.62  0.43  0.42  0.41
0.40  0.36  0.31  0.26  0.51  0.75  1.00  1.00  1.00  1.00  1.00  1.00  1.00  1.00  1.00  1.00  1.00  1.00  1.00  0.81  0.62  0.43  0.42  0.41
0.40  0.36  0.31  0.26  0.51  0.75  1.00  1.00  1.00  1.00  1.00  1.00  1.00  1.00  1.00  1.00  1.00  1.00  1.00  0.81  0.62  0.43  0.42  0.41
0.40  0.36  0.31  0.26  0.51  0.75  1.00  1.00  1.00  1.00  1.00  1.00  1.00  1.00  1.00  1.00  1.00  1.00  1.00  0.81  0.62  0.43  0.42  0.41
0.40  0.36  0.31  0.26  0.51  0.75  1.00  1.00  1.00  1.00  1.00  1.00  1.00  1.00  1.00  1.00  1.00  1.00  1.00  0.81  0.62  0.43  0.42  0.41
0.40  0.36  0.31  0.26  0.51  0.75  1.00  1.00  1.00  1.00  1.00  1.00  1.00  1.00  1.00  1.00  1.00  1.00  1.00  0.81  0.62  0.43  0.42  0.41
0.40  0.36  0.31  0.26  0.51  0.75  1.00  1.00  1.00  1.00  1.00  1.00  1.00  1.00  1.00  1.00  1.00  1.00  1.00  0.81  0.62  0.43  0.42  0.41
0.40  0.36  0.31  0.26  0.51  0.75  1.00  1.00  1.00  1.00  1.00  1.00  1.00  1.00  1.00  1.00  1.00  1.00  1.00  0.81  0.62  0.43  0.42  0.41
0.40  0.36  0.31  0.26  0.51  0.75  1.00  1.00  1.00  1.00  1.00  1.00  1.00  1.00  1.00  1.00  1.00  1.00  1.00  0.81  0.62  0.43  0.42  0.41
0.40  0.36  0.31  0.26  0.51  0.75  1.00  1.00  1.00  1.00  1.00  1.00  1.00  1.00  1.00  1.00  1.00  1.00  1.00  0.81  0.62  0.43  0.42  0.41
0.40  0.36  0.31  0.26  0.51  0.75  1.00  1.00  1.00  1.00  1.00  1.00  1.00  1.00  1.00  1.00  1.00  1.00  1.00  0.81  0.62  0.43  0.42  0.41
0.40  0.36  0.31  0.26  0.51  0.75  1.00  1.00  1.00  1.00  1.00  1.00  1.00  1.00  1.00  1.00  1.00  1.00  1.00  0.81  0.62  0.43  0.42  0.41
0.40  0.36  0.31  0.26  0.51  0.75  1.00  1.00  1.00  1.00  1.00  1.00  1.00  1.00  1.00  1.00  1.00  1.00  1.00  0.81  0.62  0.43  0.42  0.41
0.40  0.36  0.31  0.26  0.51  0.75  1.00  1.00  1.00  1.00  1.00  1.00  1.00  1.00  1.00  1.00  1.00  1.00  1.00  0.81  0.62  0.43  0.42  0.41
0.40  0.36  0.31  0.26  0.51  0.75  1.00  1.00  1.00  1.00  1.00  1.00  1.00  1.00  1.00  1.00  1.00  1.00  1.00  0.81  0.62  0.43  0.42  0.41
0.40  0.36  0.31  0.26  0.51  0.75  1.00  1.00  1.00  1.00  1.00  1.00  1.00  1.00  1.00  1.00  1.00  1.00  1.00  0.81  0.62  0.43  0.42  0.41
0.40  0.36  0.31  0.26  0.51  0.75  1.00  1.00  1.00  1.00  1.00  1.00  1.00  1.00  1.00  1.00  1.00  1.00  1.00  0.81  0.62  0.43  0.42  0.41
0.40  0.36  0.31  0.26  0.51  0.75  1.00  1.00  1.00  1.00  1.00  1.00  1.00  1.00  1.00  1.00  1.00  1.00  1.00  0.81  0.62  0.43  0.42  0.41
0.40  0.36  0.31  0.26  0.51  0.75  1.00  1.00  1.00  1.00  1.00  1.00  1.00  1.00  1.00  1.00  1.00  1.00  1.00  0.81  0.62  0.43  0.42  0.41
0.40  0.36  0.31  0.26  0.51  0.75  1.00  1.00  1.00  1.00  1.00  1.00  1.00  1.00  1.00  1.00  1.00  1.00  1.00  0.81  0.62  0.43  0.42  0.41
0.40  0.36  0.31  0.26  0.51  0.75  1.00  1.00  1.00  1.00  1.00  1.00  1.00  1.00  1.00  1.00  1.00  1.00  1.00  0.81  0.62  0.43  0.42  0.41
0.40  0.36  0.31  0.26  0.51  0.75  1.00  1.00  1.00  1.00  1.00  1.00  1.00  1.00  1.00  1.00  1.00  1.00  1.00  0.81  0.62  0.43  0.42  0.41
0.40  0.36  0.31  0.26  0.51  0.75  1.00  1.00  1.00  1.00  1.00  1.00  1.00  1.00  1.00  1.00  1.00  1.00  1.00  0.81  0.62  0.43  0.42  0.41
0.40  0.36  0.31  0.26  0.51  0.75  1.00  1.00  1.00  1.00  1.00  1.00  1.00  1.00  1.00  1.00  1.00  1.00  1.00  0.81  0.62  0.43  0.42  0.41
$ ilon ilat of the cell. lon: 8.4, 36.4
7   12
$ sizes of the cell in km
    35.818       40.510       47.296       57.107       52.638       48.829       44.478       48.829       52.638       57.107       47.296       40.510       35.818       40.510       47.296       57.107       52.638       48.829       44.478       48.829       52.638       57.107       47.296       40.510
$ mean alpha: 0.83328861894
$ mean beta: 0.83328861894
$alpha by ik, ith
0.40  0.36  0.31  0.26  0.51  0.75  1.00  1.00  1.00  1.00  1.00  1.00  1.00  1.00  1.00  1.00  1.00  1.00  1.00  1.00  1.00  1.00  0.80  0.60
0.40  0.36  0.31  0.26  0.51  0.75  1.00  1.00  1.00  1.00  1.00  1.00  1.00  1.00  1.00  1.00  1.00  1.00  1.00  1.00  1.00  1.00  0.80  0.60
0.40  0.36  0.31  0.26  0.51  0.75  1.00  1.00  1.00  1.00  1.00  1.00  1.00  1.00  1.00  1.00  1.00  1.00  1.00  1.00  1.00  1.00  0.80  0.60
0.40  0.36  0.31  0.26  0.51  0.75  1.00  1.00  1.00  1.00  1.00  1.00  1.00  1.00  1.00  1.00  1.00  1.00  1.00  1.00  1.00  1.00  0.80  0.60
0.40  0.36  0.31  0.26  0.51  0.75  1.00  1.00  1.00  1.00  1.00  1.00  1.00  1.00  1.00  1.00  1.00  1.00  1.00  1.00  1.00  1.00  0.80  0.60
0.40  0.36  0.31  0.26  0.51  0.75  1.00  1.00  1.00  1.00  1.00  1.00  1.00  1.00  1.00  1.00  1.00  1.00  1.00  1.00  1.00  1.00  0.80  0.60
0.40  0.36  0.31  0.26  0.51  0.75  1.00  1.00  1.00  1.00  1.00  1.00  1.00  1.00  1.00  1.00  1.00  1.00  1.00  1.00  1.00  1.00  0.80  0.60
0.40  0.36  0.31  0.26  0.51  0.75  1.00  1.00  1.00  1.00  1.00  1.00  1.00  1.00  1.00  1.00  1.00  1.00  1.00  1.00  1.00  1.00  0.80  0.60
0.40  0.36  0.31  0.26  0.51  0.75  1.00  1.00  1.00  1.00  1.00  1.00  1.00  1.00  1.00  1.00  1.00  1.00  1.00  1.00  1.00  1.00  0.80  0.60
0.40  0.36  0.31  0.26  0.51  0.75  1.00  1.00  1.00  1.00  1.00  1.00  1.00  1.00  1.00  1.00  1.00  1.00  1.00  1.00  1.00  1.00  0.80  0.60
0.40  0.36  0.31  0.26  0.51  0.75  1.00  1.00  1.00  1.00  1.00  1.00  1.00  1.00  1.00  1.00  1.00  1.00  1.00  1.00  1.00  1.00  0.80  0.60
0.40  0.36  0.31  0.26  0.51  0.75  1.00  1.00  1.00  1.00  1.00  1.00  1.00  1.00  1.00  1.00  1.00  1.00  1.00  1.00  1.00  1.00  0.80  0.60
0.40  0.36  0.31  0.26  0.51  0.75  1.00  1.00  1.00  1.00  1.00  1.00  1.00  1.00  1.00  1.00  1.00  1.00  1.00  1.00  1.00  1.00  0.80  0.60
0.40  0.36  0.31  0.26  0.51  0.75  1.00  1.00  1.00  1.00  1.00  1.00  1.00  1.00  1.00  1.00  1.00  1.00  1.00  1.00  1.00  1.00  0.80  0.60
0.40  0.36  0.31  0.26  0.51  0.75  1.00  1.00  1.00  1.00  1.00  1.00  1.00  1.00  1.00  1.00  1.00  1.00  1.00  1.00  1.00  1.00  0.80  0.60
0.40  0.36  0.31  0.26  0.51  0.75  1.00  1.00  1.00  1.00  1.00  1.00  1.00  1.00  1.00  1.00  1.00  1.00  1.00  1.00  1.00  1.00  0.80  0.60
0.40  0.36  0.31  0.26  0.51  0.75  1.00  1.00  1.00  1.00  1.00  1.00  1.00  1.00  1.00  1.00  1.00  1.00  1.00  1.00  1.00  1.00  0.80  0.60
0.40  0.36  0.31  0.26  0.51  0.75  1.00  1.00  1.00  1.00  1.00  1.00  1.00  1.00  1.00  1.00  1.00  1.00  1.00  1.00  1.00  1.00  0.80  0.60
0.40  0.36  0.31  0.26  0.51  0.75  1.00  1.00  1.00  1.00  1.00  1.00  1.00  1.00  1.00  1.00  1.00  1.00  1.00  1.00  1.00  1.00  0.80  0.60
0.40  0.36  0.31  0.26  0.51  0.75  1.00  1.00  1.00  1.00  1.00  1.00  1.00  1.00  1.00  1.00  1.00  1.00  1.00  1.00  1.00  1.00  0.80  0.60
0.40  0.36  0.31  0.26  0.51  0.75  1.00  1.00  1.00  1.00  1.00  1.00  1.00  1.00  1.00  1.00  1.00  1.00  1.00  1.00  1.00  1.00  0.80  0.60
0.40  0.36  0.31  0.26  0.51  0.75  1.00  1.00  1.00  1.00  1.00  1.00  1.00  1.00  1.00  1.00  1.00  1.00  1.00  1.00  1.00  1.00  0.80  0.60
0.40  0.36  0.31  0.26  0.51  0.75  1.00  1.00  1.00  1.00  1.00  1.00  1.00  1.00  1.00  1.00  1.00  1.00  1.00  1.00  1.00  1.00  0.80  0.60
0.40  0.36  0.31  0.26  0.51  0.75  1.00  1.00  1.00  1.00  1.00  1.00  1.00  1.00  1.00  1.00  1.00  1.00  1.00  1.00  1.00  1.00  0.80  0.60
0.40  0.36  0.31  0.26  0.51  0.75  1.00  1.00  1.00  1.00  1.00  1.00  1.00  1.00  1.00  1.00  1.00  1.00  1.00  1.00  1.00  1.00  0.80  0.60
$beta by ik, ith
0.40  0.36  0.31  0.26  0.51  0.75  1.00  1.00  1.00  1.00  1.00  1.00  1.00  1.00  1.00  1.00  1.00  1.00  1.00  1.00  1.00  1.00  0.80  0.60
0.40  0.36  0.31  0.26  0.51  0.75  1.00  1.00  1.00  1.00  1.00  1.00  1.00  1.00  1.00  1.00  1.00  1.00  1.00  1.00  1.00  1.00  0.80  0.60
0.40  0.36  0.31  0.26  0.51  0.75  1.00  1.00  1.00  1.00  1.00  1.00  1.00  1.00  1.00  1.00  1.00  1.00  1.00  1.00  1.00  1.00  0.80  0.60
0.40  0.36  0.31  0.26  0.51  0.75  1.00  1.00  1.00  1.00  1.00  1.00  1.00  1.00  1.00  1.00  1.00  1.00  1.00  1.00  1.00  1.00  0.80  0.60
0.40  0.36  0.31  0.26  0.51  0.75  1.00  1.00  1.00  1.00  1.00  1.00  1.00  1.00  1.00  1.00  1.00  1.00  1.00  1.00  1.00  1.00  0.80  0.60
0.40  0.36  0.31  0.26  0.51  0.75  1.00  1.00  1.00  1.00  1.00  1.00  1.00  1.00  1.00  1.00  1.00  1.00  1.00  1.00  1.00  1.00  0.80  0.60
0.40  0.36  0.31  0.26  0.51  0.75  1.00  1.00  1.00  1.00  1.00  1.00  1.00  1.00  1.00  1.00  1.00  1.00  1.00  1.00  1.00  1.00  0.80  0.60
0.40  0.36  0.31  0.26  0.51  0.75  1.00  1.00  1.00  1.00  1.00  1.00  1.00  1.00  1.00  1.00  1.00  1.00  1.00  1.00  1.00  1.00  0.80  0.60
0.40  0.36  0.31  0.26  0.51  0.75  1.00  1.00  1.00  1.00  1.00  1.00  1.00  1.00  1.00  1.00  1.00  1.00  1.00  1.00  1.00  1.00  0.80  0.60
0.40  0.36  0.31  0.26  0.51  0.75  1.00  1.00  1.00  1.00  1.00  1.00  1.00  1.00  1.00  1.00  1.00  1.00  1.00  1.00  1.00  1.00  0.80  0.60
0.40  0.36  0.31  0.26  0.51  0.75  1.00  1.00  1.00  1.00  1.00  1.00  1.00  1.00  1.00  1.00  1.00  1.00  1.00  1.00  1.00  1.00  0.80  0.60
0.40  0.36  0.31  0.26  0.51  0.75  1.00  1.00  1.00  1.00  1.00  1.00  1.00  1.00  1.00  1.00  1.00  1.00  1.00  1.00  1.00  1.00  0.80  0.60
0.40  0.36  0.31  0.26  0.51  0.75  1.00  1.00  1.00  1.00  1.00  1.00  1.00  1.00  1.00  1.00  1.00  1.00  1.00  1.00  1.00  1.00  0.80  0.60
0.40  0.36  0.31  0.26  0.51  0.75  1.00  1.00  1.00  1.00  1.00  1.00  1.00  1.00  1.00  1.00  1.00  1.00  1.00  1.00  1.00  1.00  0.80  0.60
0.40  0.36  0.31  0.26  0.51  0.75  1.00  1.00  1.00  1.00  1.00  1.00  1.00  1.00  1.00  1.00  1.00  1.00  1.00  1.00  1.00  1.00  0.80  0.60
0.40  0.36  0.31  0.26  0.51  0.75  1.00  1.00  1.00  1.00  1.00  1.00  1.00  1.00  1.00  1.00  1.00  1.00  1.00  1.00  1.00  1.00  0.80  0.60
0.40  0.36  0.31  0.26  0.51  0.75  1.00  1.00  1.00  1.00  1.00  1.00  1.00  1.00  1.00  1.00  1.00  1.00  1.00  1.00  1.00  1.00  0.80  0.60
0.40  0.36  0.31  0.26  0.51  0.75  1.00  1.00  1.00  1.00  1.00  1.00  1.00  1.00  1.00  1.00  1.00  1.00  1.00  1.00  1.00  1.00  0.80  0.60
0.40  0.36  0.31  0.26  0.51  0.75  1.00  1.00  1.00  1.00  1.00  1.00  1.00  1.00  1.00  1.00  1.00  1.00  1.00  1.00  1.00  1.00  0.80  0.60
0.40  0.36  0.31  0.26  0.51  0.75  1.00  1.00  1.00  1.00  1.00  1.00  1.00  1.00  1.00  1.00  1.00  1.00  1.00  1.00  1.00  1.00  0.80  0.60
0.40  0.36  0.31  0.26  0.51  0.75  1.00  1.00  1.00  1.00  1.00  1.00  1.00  1.00  1.00  1.00  1.00  1.00  1.00  1.00  1.00  1.00  0.80  0.60
0.40  0.36  0.31  0.26  0.51  0.75  1.00  1.00  1.00  1.00  1.00  1.00  1.00  1.00  1.00  1.00  1.00  1.00  1.00  1.00  1.00  1.00  0.80  0.60
0.40  0.36  0.31  0.26  0.51  0.75  1.00  1.00  1.00  1.00  1.00  1.00  1.00  1.00  1.00  1.00  1.00  1.00  1.00  1.00  1.00  1.00  0.80  0.60
0.40  0.36  0.31  0.26  0.51  0.75  1.00  1.00  1.00  1.00  1.00  1.00  1.00  1.00  1.00  1.00  1.00  1.00  1.00  1.00  1.00  1.00  0.80  0.60
0.40  0.36  0.31  0.26  0.51  0.75  1.00  1.00  1.00  1.00  1.00  1.00  1.00  1.00  1.00  1.00  1.00  1.00  1.00  1.00  1.00  1.00  0.80  0.60
