$WAVEWATCH III LOCAL OBSTRUCTIONS
12
$ ilon ilat of the cell. lon: 8.0, 32.0
6   1
$ sizes of the cell in km
    37.736       42.467       48.983       58.329       53.149       48.949       44.478       48.949       53.149       58.329       48.983       42.467       37.736       42.467       48.983       58.329       53.149       48.949       44.478       48.949       53.149       58.329       48.983       42.467
$ mean alpha: 0.5625
$ mean beta: 0.678221272464
$alpha by ik, ith
0.50  0.50  0.50  0.50  0.58  0.67  0.75  0.67  0.58  0.50  0.50  0.50  0.50  0.50  0.50  0.50  0.58  0.67  0.75  0.67  0.58  0.50  0.50  0.50
0.50  0.50  0.50  0.50  0.58  0.67  0.75  0.67  0.58  0.50  0.50  0.50  0.50  0.50  0.50  0.50  0.58  0.67  0.75  0.67  0.58  0.50  0.50  0.50
0.50  0.50  0.50  0.50  0.58  0.67  0.75  0.67  0.58  0.50  0.50  0.50  0.50  0.50  0.50  0.50  0.58  0.67  0.75  0.67  0.58  0.50  0.50  0.50
0.50  0.50  0.50  0.50  0.58  0.67  0.75  0.67  0.58  0.50  0.50  0.50  0.50  0.50  0.50  0.50  0.58  0.67  0.75  0.67  0.58  0.50  0.50  0.50
0.50  0.50  0.50  0.50  0.58  0.67  0.75  0.67  0.58  0.50  0.50  0.50  0.50  0.50  0.50  0.50  0.58  0.67  0.75  0.67  0.58  0.50  0.50  0.50
0.50  0.50  0.50  0.50  0.58  0.67  0.75  0.67  0.58  0.50  0.50  0.50  0.50  0.50  0.50  0.50  0.58  0.67  0.75  0.67  0.58  0.50  0.50  0.50
0.50  0.50  0.50  0.50  0.58  0.67  0.75  0.67  0.58  0.50  0.50  0.50  0.50  0.50  0.50  0.50  0.58  0.67  0.75  0.67  0.58  0.50  0.50  0.50
0.50  0.50  0.50  0.50  0.58  0.67  0.75  0.67  0.58  0.50  0.50  0.50  0.50  0.50  0.50  0.50  0.58  0.67  0.75  0.67  0.58  0.50  0.50  0.50
0.50  0.50  0.50  0.50  0.58  0.67  0.75  0.67  0.58  0.50  0.50  0.50  0.50  0.50  0.50  0.50  0.58  0.67  0.75  0.67  0.58  0.50  0.50  0.50
0.50  0.50  0.50  0.50  0.58  0.67  0.75  0.67  0.58  0.50  0.50  0.50  0.50  0.50  0.50  0.50  0.58  0.67  0.75  0.67  0.58  0.50  0.50  0.50
0.50  0.50  0.50  0.50  0.58  0.67  0.75  0.67  0.58  0.50  0.50  0.50  0.50  0.50  0.50  0.50  0.58  0.67  0.75  0.67  0.58  0.50  0.50  0.50
0.50  0.50  0.50  0.50  0.58  0.67  0.75  0.67  0.58  0.50  0.50  0.50  0.50  0.50  0.50  0.50  0.58  0.67  0.75  0.67  0.58  0.50  0.50  0.50
0.50  0.50  0.50  0.50  0.58  0.67  0.75  0.67  0.58  0.50  0.50  0.50  0.50  0.50  0.50  0.50  0.58  0.67  0.75  0.67  0.58  0.50  0.50  0.50
0.50  0.50  0.50  0.50  0.58  0.67  0.75  0.67  0.58  0.50  0.50  0.50  0.50  0.50  0.50  0.50  0.58  0.67  0.75  0.67  0.58  0.50  0.50  0.50
0.50  0.50  0.50  0.50  0.58  0.67  0.75  0.67  0.58  0.50  0.50  0.50  0.50  0.50  0.50  0.50  0.58  0.67  0.75  0.67  0.58  0.50  0.50  0.50
0.50  0.50  0.50  0.50  0.58  0.67  0.75  0.67  0.58  0.50  0.50  0.50  0.50  0.50  0.50  0.50  0.58  0.67  0.75  0.67  0.58  0.50  0.50  0.50
0.50  0.50  0.50  0.50  0.58  0.67  0.75  0.67  0.58  0.50  0.50  0.50  0.50  0.50  0.50  0.50  0.58  0.67  0.75  0.67  0.58  0.50  0.50  0.50
0.50  0.50  0.50  0.50  0.58  0.67  0.75  0.67  0.58  0.50  0.50  0.50  0.50  0.50  0.50  0.50  0.58  0.67  0.75  0.67  0.58  0.50  0.50  0.50
0.50  0.50  0.50  0.50  0.58  0.67  0.75  0.67  0.58  0.50  0.50  0.50  0.50  0.50  0.50  0.50  0.58  0.67  0.75  0.67  0.58  0.50  0.50  0.50
0.50  0.50  0.50  0.50  0.58  0.67  0.75  0.67  0.58  0.50  0.50  0.50  0.50  0.50  0.50  0.50  0.58  0.67  0.75  0.67  0.58  0.50  0.50  0.50
0.50  0.50  0.50  0.50  0.58  0.67  0.75  0.67  0.58  0.50  0.50  0.50  0.50  0.50  0.50  0.50  0.58  0.67  0.75  0.67  0.58  0.50  0.50  0.50
0.50  0.50  0.50  0.50  0.58  0.67  0.75  0.67  0.58  0.50  0.50  0.50  0.50  0.50  0.50  0.50  0.58  0.67  0.75  0.67  0.58  0.50  0.50  0.50
0.50  0.50  0.50  0.50  0.58  0.67  0.75  0.67  0.58  0.50  0.50  0.50  0.50  0.50  0.50  0.50  0.58  0.67  0.75  0.67  0.58  0.50  0.50  0.50
0.50  0.50  0.50  0.50  0.58  0.67  0.75  0.67  0.58  0.50  0.50  0.50  0.50  0.50  0.50  0.50  0.58  0.67  0.75  0.67  0.58  0.50  0.50  0.50
0.50  0.50  0.50  0.50  0.58  0.67  0.75  0.67  0.58  0.50  0.50  0.50  0.50  0.50  0.50  0.50  0.58  0.67  0.75  0.67  0.58  0.50  0.50  0.50
$beta by ik, ith
0.50  0.48  0.47  0.45  0.55  0.65  0.75  0.74  0.72  0.71  0.76  0.82  0.87  0.84  0.81  0.78  0.79  0.80  0.81  0.72  0.63  0.54  0.53  0.51
0.50  0.48  0.47  0.45  0.55  0.65  0.75  0.74  0.72  0.71  0.76  0.82  0.87  0.84  0.81  0.78  0.79  0.80  0.81  0.72  0.63  0.54  0.53  0.51
0.50  0.48  0.47  0.45  0.55  0.65  0.75  0.74  0.72  0.71  0.76  0.82  0.87  0.84  0.81  0.78  0.79  0.80  0.81  0.72  0.63  0.54  0.53  0.51
0.50  0.48  0.47  0.45  0.55  0.65  0.75  0.74  0.72  0.71  0.76  0.82  0.87  0.84  0.81  0.78  0.79  0.80  0.81  0.72  0.63  0.54  0.53  0.51
0.50  0.48  0.47  0.45  0.55  0.65  0.75  0.74  0.72  0.71  0.76  0.82  0.87  0.84  0.81  0.78  0.79  0.80  0.81  0.72  0.63  0.54  0.53  0.51
0.50  0.48  0.47  0.45  0.55  0.65  0.75  0.74  0.72  0.71  0.76  0.82  0.87  0.84  0.81  0.78  0.79  0.80  0.81  0.72  0.63  0.54  0.53  0.51
0.50  0.48  0.47  0.45  0.55  0.65  0.75  0.74  0.72  0.71  0.76  0.82  0.87  0.84  0.81  0.78  0.79  0.80  0.81  0.72  0.63  0.54  0.53  0.51
0.50  0.48  0.47  0.45  0.55  0.65  0.75  0.74  0.72  0.71  0.76  0.82  0.87  0.84  0.81  0.78  0.79  0.80  0.81  0.72  0.63  0.54  0.53  0.51
0.50  0.48  0.47  0.45  0.55  0.65  0.75  0.74  0.72  0.71  0.76  0.82  0.87  0.84  0.81  0.78  0.79  0.80  0.81  0.72  0.63  0.54  0.53  0.51
0.50  0.48  0.47  0.45  0.55  0.65  0.75  0.74  0.72  0.71  0.76  0.82  0.87  0.84  0.81  0.78  0.79  0.80  0.81  0.72  0.63  0.54  0.53  0.51
0.50  0.48  0.47  0.45  0.55  0.65  0.75  0.74  0.72  0.71  0.76  0.82  0.87  0.84  0.81  0.78  0.79  0.80  0.81  0.72  0.63  0.54  0.53  0.51
0.50  0.48  0.47  0.45  0.55  0.65  0.75  0.74  0.72  0.71  0.76  0.82  0.87  0.84  0.81  0.78  0.79  0.80  0.81  0.72  0.63  0.54  0.53  0.51
0.50  0.48  0.47  0.45  0.55  0.65  0.75  0.74  0.72  0.71  0.76  0.82  0.87  0.84  0.81  0.78  0.79  0.80  0.81  0.72  0.63  0.54  0.53  0.51
0.50  0.48  0.47  0.45  0.55  0.65  0.75  0.74  0.72  0.71  0.76  0.82  0.87  0.84  0.81  0.78  0.79  0.80  0.81  0.72  0.63  0.54  0.53  0.51
0.50  0.48  0.47  0.45  0.55  0.65  0.75  0.74  0.72  0.71  0.76  0.82  0.87  0.84  0.81  0.78  0.79  0.80  0.81  0.72  0.63  0.54  0.53  0.51
0.50  0.48  0.47  0.45  0.55  0.65  0.75  0.74  0.72  0.71  0.76  0.82  0.87  0.84  0.81  0.78  0.79  0.80  0.81  0.72  0.63  0.54  0.53  0.51
0.50  0.48  0.47  0.45  0.55  0.65  0.75  0.74  0.72  0.71  0.76  0.82  0.87  0.84  0.81  0.78  0.79  0.80  0.81  0.72  0.63  0.54  0.53  0.51
0.50  0.48  0.47  0.45  0.55  0.65  0.75  0.74  0.72  0.71  0.76  0.82  0.87  0.84  0.81  0.78  0.79  0.80  0.81  0.72  0.63  0.54  0.53  0.51
0.50  0.48  0.47  0.45  0.55  0.65  0.75  0.74  0.72  0.71  0.76  0.82  0.87  0.84  0.81  0.78  0.79  0.80  0.81  0.72  0.63  0.54  0.53  0.51
0.50  0.48  0.47  0.45  0.55  0.65  0.75  0.74  0.72  0.71  0.76  0.82  0.87  0.84  0.81  0.78  0.79  0.80  0.81  0.72  0.63  0.54  0.53  0.51
0.50  0.48  0.47  0.45  0.55  0.65  0.75  0.74  0.72  0.71  0.76  0.82  0.87  0.84  0.81  0.78  0.79  0.80  0.81  0.72  0.63  0.54  0.53  0.51
0.50  0.48  0.47  0.45  0.55  0.65  0.75  0.74  0.72  0.71  0.76  0.82  0.87  0.84  0.81  0.78  0.79  0.80  0.81  0.72  0.63  0.54  0.53  0.51
0.50  0.48  0.47  0.45  0.55  0.65  0.75  0.74  0.72  0.71  0.76  0.82  0.87  0.84  0.81  0.78  0.79  0.80  0.81  0.72  0.63  0.54  0.53  0.51
0.50  0.48  0.47  0.45  0.55  0.65  0.75  0.74  0.72  0.71  0.76  0.82  0.87  0.84  0.81  0.78  0.79  0.80  0.81  0.72  0.63  0.54  0.53  0.51
0.50  0.48  0.47  0.45  0.55  0.65  0.75  0.74  0.72  0.71  0.76  0.82  0.87  0.84  0.81  0.78  0.79  0.80  0.81  0.72  0.63  0.54  0.53  0.51
$ ilon ilat of the cell. lon: 8.0, 32.4
6   2
$ sizes of the cell in km
    37.571       42.298       48.836       58.222       53.104       48.938       44.478       48.938       53.104       58.222       48.836       42.298       37.571       42.298       48.836       58.222       53.104       48.938       44.478       48.938       53.104       58.222       48.836       42.298
$ mean alpha: 0.5625
$ mean beta: 0.678221272464
$alpha by ik, ith
0.50  0.50  0.50  0.50  0.58  0.67  0.75  0.67  0.58  0.50  0.50  0.50  0.50  0.50  0.50  0.50  0.58  0.67  0.75  0.67  0.58  0.50  0.50  0.50
0.50  0.50  0.50  0.50  0.58  0.67  0.75  0.67  0.58  0.50  0.50  0.50  0.50  0.50  0.50  0.50  0.58  0.67  0.75  0.67  0.58  0.50  0.50  0.50
0.50  0.50  0.50  0.50  0.58  0.67  0.75  0.67  0.58  0.50  0.50  0.50  0.50  0.50  0.50  0.50  0.58  0.67  0.75  0.67  0.58  0.50  0.50  0.50
0.50  0.50  0.50  0.50  0.58  0.67  0.75  0.67  0.58  0.50  0.50  0.50  0.50  0.50  0.50  0.50  0.58  0.67  0.75  0.67  0.58  0.50  0.50  0.50
0.50  0.50  0.50  0.50  0.58  0.67  0.75  0.67  0.58  0.50  0.50  0.50  0.50  0.50  0.50  0.50  0.58  0.67  0.75  0.67  0.58  0.50  0.50  0.50
0.50  0.50  0.50  0.50  0.58  0.67  0.75  0.67  0.58  0.50  0.50  0.50  0.50  0.50  0.50  0.50  0.58  0.67  0.75  0.67  0.58  0.50  0.50  0.50
0.50  0.50  0.50  0.50  0.58  0.67  0.75  0.67  0.58  0.50  0.50  0.50  0.50  0.50  0.50  0.50  0.58  0.67  0.75  0.67  0.58  0.50  0.50  0.50
0.50  0.50  0.50  0.50  0.58  0.67  0.75  0.67  0.58  0.50  0.50  0.50  0.50  0.50  0.50  0.50  0.58  0.67  0.75  0.67  0.58  0.50  0.50  0.50
0.50  0.50  0.50  0.50  0.58  0.67  0.75  0.67  0.58  0.50  0.50  0.50  0.50  0.50  0.50  0.50  0.58  0.67  0.75  0.67  0.58  0.50  0.50  0.50
0.50  0.50  0.50  0.50  0.58  0.67  0.75  0.67  0.58  0.50  0.50  0.50  0.50  0.50  0.50  0.50  0.58  0.67  0.75  0.67  0.58  0.50  0.50  0.50
0.50  0.50  0.50  0.50  0.58  0.67  0.75  0.67  0.58  0.50  0.50  0.50  0.50  0.50  0.50  0.50  0.58  0.67  0.75  0.67  0.58  0.50  0.50  0.50
0.50  0.50  0.50  0.50  0.58  0.67  0.75  0.67  0.58  0.50  0.50  0.50  0.50  0.50  0.50  0.50  0.58  0.67  0.75  0.67  0.58  0.50  0.50  0.50
0.50  0.50  0.50  0.50  0.58  0.67  0.75  0.67  0.58  0.50  0.50  0.50  0.50  0.50  0.50  0.50  0.58  0.67  0.75  0.67  0.58  0.50  0.50  0.50
0.50  0.50  0.50  0.50  0.58  0.67  0.75  0.67  0.58  0.50  0.50  0.50  0.50  0.50  0.50  0.50  0.58  0.67  0.75  0.67  0.58  0.50  0.50  0.50
0.50  0.50  0.50  0.50  0.58  0.67  0.75  0.67  0.58  0.50  0.50  0.50  0.50  0.50  0.50  0.50  0.58  0.67  0.75  0.67  0.58  0.50  0.50  0.50
0.50  0.50  0.50  0.50  0.58  0.67  0.75  0.67  0.58  0.50  0.50  0.50  0.50  0.50  0.50  0.50  0.58  0.67  0.75  0.67  0.58  0.50  0.50  0.50
0.50  0.50  0.50  0.50  0.58  0.67  0.75  0.67  0.58  0.50  0.50  0.50  0.50  0.50  0.50  0.50  0.58  0.67  0.75  0.67  0.58  0.50  0.50  0.50
0.50  0.50  0.50  0.50  0.58  0.67  0.75  0.67  0.58  0.50  0.50  0.50  0.50  0.50  0.50  0.50  0.58  0.67  0.75  0.67  0.58  0.50  0.50  0.50
0.50  0.50  0.50  0.50  0.58  0.67  0.75  0.67  0.58  0.50  0.50  0.50  0.50  0.50  0.50  0.50  0.58  0.67  0.75  0.67  0.58  0.50  0.50  0.50
0.50  0.50  0.50  0.50  0.58  0.67  0.75  0.67  0.58  0.50  0.50  0.50  0.50  0.50  0.50  0.50  0.58  0.67  0.75  0.67  0.58  0.50  0.50  0.50
0.50  0.50  0.50  0.50  0.58  0.67  0.75  0.67  0.58  0.50  0.50  0.50  0.50  0.50  0.50  0.50  0.58  0.67  0.75  0.67  0.58  0.50  0.50  0.50
0.50  0.50  0.50  0.50  0.58  0.67  0.75  0.67  0.58  0.50  0.50  0.50  0.50  0.50  0.50  0.50  0.58  0.67  0.75  0.67  0.58  0.50  0.50  0.50
0.50  0.50  0.50  0.50  0.58  0.67  0.75  0.67  0.58  0.50  0.50  0.50  0.50  0.50  0.50  0.50  0.58  0.67  0.75  0.67  0.58  0.50  0.50  0.50
0.50  0.50  0.50  0.50  0.58  0.67  0.75  0.67  0.58  0.50  0.50  0.50  0.50  0.50  0.50  0.50  0.58  0.67  0.75  0.67  0.58  0.50  0.50  0.50
0.50  0.50  0.50  0.50  0.58  0.67  0.75  0.67  0.58  0.50  0.50  0.50  0.50  0.50  0.50  0.50  0.58  0.67  0.75  0.67  0.58  0.50  0.50  0.50
$beta by ik, ith
0.50  0.48  0.47  0.45  0.55  0.65  0.75  0.74  0.72  0.71  0.76  0.82  0.88  0.84  0.81  0.78  0.79  0.80  0.81  0.72  0.63  0.54  0.53  0.51
0.50  0.48  0.47  0.45  0.55  0.65  0.75  0.74  0.72  0.71  0.76  0.82  0.88  0.84  0.81  0.78  0.79  0.80  0.81  0.72  0.63  0.54  0.53  0.51
0.50  0.48  0.47  0.45  0.55  0.65  0.75  0.74  0.72  0.71  0.76  0.82  0.88  0.84  0.81  0.78  0.79  0.80  0.81  0.72  0.63  0.54  0.53  0.51
0.50  0.48  0.47  0.45  0.55  0.65  0.75  0.74  0.72  0.71  0.76  0.82  0.88  0.84  0.81  0.78  0.79  0.80  0.81  0.72  0.63  0.54  0.53  0.51
0.50  0.48  0.47  0.45  0.55  0.65  0.75  0.74  0.72  0.71  0.76  0.82  0.88  0.84  0.81  0.78  0.79  0.80  0.81  0.72  0.63  0.54  0.53  0.51
0.50  0.48  0.47  0.45  0.55  0.65  0.75  0.74  0.72  0.71  0.76  0.82  0.88  0.84  0.81  0.78  0.79  0.80  0.81  0.72  0.63  0.54  0.53  0.51
0.50  0.48  0.47  0.45  0.55  0.65  0.75  0.74  0.72  0.71  0.76  0.82  0.88  0.84  0.81  0.78  0.79  0.80  0.81  0.72  0.63  0.54  0.53  0.51
0.50  0.48  0.47  0.45  0.55  0.65  0.75  0.74  0.72  0.71  0.76  0.82  0.88  0.84  0.81  0.78  0.79  0.80  0.81  0.72  0.63  0.54  0.53  0.51
0.50  0.48  0.47  0.45  0.55  0.65  0.75  0.74  0.72  0.71  0.76  0.82  0.88  0.84  0.81  0.78  0.79  0.80  0.81  0.72  0.63  0.54  0.53  0.51
0.50  0.48  0.47  0.45  0.55  0.65  0.75  0.74  0.72  0.71  0.76  0.82  0.88  0.84  0.81  0.78  0.79  0.80  0.81  0.72  0.63  0.54  0.53  0.51
0.50  0.48  0.47  0.45  0.55  0.65  0.75  0.74  0.72  0.71  0.76  0.82  0.88  0.84  0.81  0.78  0.79  0.80  0.81  0.72  0.63  0.54  0.53  0.51
0.50  0.48  0.47  0.45  0.55  0.65  0.75  0.74  0.72  0.71  0.76  0.82  0.88  0.84  0.81  0.78  0.79  0.80  0.81  0.72  0.63  0.54  0.53  0.51
0.50  0.48  0.47  0.45  0.55  0.65  0.75  0.74  0.72  0.71  0.76  0.82  0.88  0.84  0.81  0.78  0.79  0.80  0.81  0.72  0.63  0.54  0.53  0.51
0.50  0.48  0.47  0.45  0.55  0.65  0.75  0.74  0.72  0.71  0.76  0.82  0.88  0.84  0.81  0.78  0.79  0.80  0.81  0.72  0.63  0.54  0.53  0.51
0.50  0.48  0.47  0.45  0.55  0.65  0.75  0.74  0.72  0.71  0.76  0.82  0.88  0.84  0.81  0.78  0.79  0.80  0.81  0.72  0.63  0.54  0.53  0.51
0.50  0.48  0.47  0.45  0.55  0.65  0.75  0.74  0.72  0.71  0.76  0.82  0.88  0.84  0.81  0.78  0.79  0.80  0.81  0.72  0.63  0.54  0.53  0.51
0.50  0.48  0.47  0.45  0.55  0.65  0.75  0.74  0.72  0.71  0.76  0.82  0.88  0.84  0.81  0.78  0.79  0.80  0.81  0.72  0.63  0.54  0.53  0.51
0.50  0.48  0.47  0.45  0.55  0.65  0.75  0.74  0.72  0.71  0.76  0.82  0.88  0.84  0.81  0.78  0.79  0.80  0.81  0.72  0.63  0.54  0.53  0.51
0.50  0.48  0.47  0.45  0.55  0.65  0.75  0.74  0.72  0.71  0.76  0.82  0.88  0.84  0.81  0.78  0.79  0.80  0.81  0.72  0.63  0.54  0.53  0.51
0.50  0.48  0.47  0.45  0.55  0.65  0.75  0.74  0.72  0.71  0.76  0.82  0.88  0.84  0.81  0.78  0.79  0.80  0.81  0.72  0.63  0.54  0.53  0.51
0.50  0.48  0.47  0.45  0.55  0.65  0.75  0.74  0.72  0.71  0.76  0.82  0.88  0.84  0.81  0.78  0.79  0.80  0.81  0.72  0.63  0.54  0.53  0.51
0.50  0.48  0.47  0.45  0.55  0.65  0.75  0.74  0.72  0.71  0.76  0.82  0.88  0.84  0.81  0.78  0.79  0.80  0.81  0.72  0.63  0.54  0.53  0.51
0.50  0.48  0.47  0.45  0.55  0.65  0.75  0.74  0.72  0.71  0.76  0.82  0.88  0.84  0.81  0.78  0.79  0.80  0.81  0.72  0.63  0.54  0.53  0.51
0.50  0.48  0.47  0.45  0.55  0.65  0.75  0.74  0.72  0.71  0.76  0.82  0.88  0.84  0.81  0.78  0.79  0.80  0.81  0.72  0.63  0.54  0.53  0.51
0.50  0.48  0.47  0.45  0.55  0.65  0.75  0.74  0.72  0.71  0.76  0.82  0.88  0.84  0.81  0.78  0.79  0.80  0.81  0.72  0.63  0.54  0.53  0.51
$ ilon ilat of the cell. lon: 8.0, 32.8
6   3
$ sizes of the cell in km
    37.404       42.127       48.688       58.115       53.059       48.927       44.478       48.927       53.059       58.115       48.688       42.127       37.404       42.127       48.688       58.115       53.059       48.927       44.478       48.927       53.059       58.115       48.688       42.127
$ mean alpha: 0.5625
$ mean beta: 0.678221272464
$alpha by ik, ith
0.50  0.50  0.50  0.50  0.58  0.67  0.75  0.67  0.58  0.50  0.50  0.50  0.50  0.50  0.50  0.50  0.58  0.67  0.75  0.67  0.58  0.50  0.50  0.50
0.50  0.50  0.50  0.50  0.58  0.67  0.75  0.67  0.58  0.50  0.50  0.50  0.50  0.50  0.50  0.50  0.58  0.67  0.75  0.67  0.58  0.50  0.50  0.50
0.50  0.50  0.50  0.50  0.58  0.67  0.75  0.67  0.58  0.50  0.50  0.50  0.50  0.50  0.50  0.50  0.58  0.67  0.75  0.67  0.58  0.50  0.50  0.50
0.50  0.50  0.50  0.50  0.58  0.67  0.75  0.67  0.58  0.50  0.50  0.50  0.50  0.50  0.50  0.50  0.58  0.67  0.75  0.67  0.58  0.50  0.50  0.50
0.50  0.50  0.50  0.50  0.58  0.67  0.75  0.67  0.58  0.50  0.50  0.50  0.50  0.50  0.50  0.50  0.58  0.67  0.75  0.67  0.58  0.50  0.50  0.50
0.50  0.50  0.50  0.50  0.58  0.67  0.75  0.67  0.58  0.50  0.50  0.50  0.50  0.50  0.50  0.50  0.58  0.67  0.75  0.67  0.58  0.50  0.50  0.50
0.50  0.50  0.50  0.50  0.58  0.67  0.75  0.67  0.58  0.50  0.50  0.50  0.50  0.50  0.50  0.50  0.58  0.67  0.75  0.67  0.58  0.50  0.50  0.50
0.50  0.50  0.50  0.50  0.58  0.67  0.75  0.67  0.58  0.50  0.50  0.50  0.50  0.50  0.50  0.50  0.58  0.67  0.75  0.67  0.58  0.50  0.50  0.50
0.50  0.50  0.50  0.50  0.58  0.67  0.75  0.67  0.58  0.50  0.50  0.50  0.50  0.50  0.50  0.50  0.58  0.67  0.75  0.67  0.58  0.50  0.50  0.50
0.50  0.50  0.50  0.50  0.58  0.67  0.75  0.67  0.58  0.50  0.50  0.50  0.50  0.50  0.50  0.50  0.58  0.67  0.75  0.67  0.58  0.50  0.50  0.50
0.50  0.50  0.50  0.50  0.58  0.67  0.75  0.67  0.58  0.50  0.50  0.50  0.50  0.50  0.50  0.50  0.58  0.67  0.75  0.67  0.58  0.50  0.50  0.50
0.50  0.50  0.50  0.50  0.58  0.67  0.75  0.67  0.58  0.50  0.50  0.50  0.50  0.50  0.50  0.50  0.58  0.67  0.75  0.67  0.58  0.50  0.50  0.50
0.50  0.50  0.50  0.50  0.58  0.67  0.75  0.67  0.58  0.50  0.50  0.50  0.50  0.50  0.50  0.50  0.58  0.67  0.75  0.67  0.58  0.50  0.50  0.50
0.50  0.50  0.50  0.50  0.58  0.67  0.75  0.67  0.58  0.50  0.50  0.50  0.50  0.50  0.50  0.50  0.58  0.67  0.75  0.67  0.58  0.50  0.50  0.50
0.50  0.50  0.50  0.50  0.58  0.67  0.75  0.67  0.58  0.50  0.50  0.50  0.50  0.50  0.50  0.50  0.58  0.67  0.75  0.67  0.58  0.50  0.50  0.50
0.50  0.50  0.50  0.50  0.58  0.67  0.75  0.67  0.58  0.50  0.50  0.50  0.50  0.50  0.50  0.50  0.58  0.67  0.75  0.67  0.58  0.50  0.50  0.50
0.50  0.50  0.50  0.50  0.58  0.67  0.75  0.67  0.58  0.50  0.50  0.50  0.50  0.50  0.50  0.50  0.58  0.67  0.75  0.67  0.58  0.50  0.50  0.50
0.50  0.50  0.50  0.50  0.58  0.67  0.75  0.67  0.58  0.50  0.50  0.50  0.50  0.50  0.50  0.50  0.58  0.67  0.75  0.67  0.58  0.50  0.50  0.50
0.50  0.50  0.50  0.50  0.58  0.67  0.75  0.67  0.58  0.50  0.50  0.50  0.50  0.50  0.50  0.50  0.58  0.67  0.75  0.67  0.58  0.50  0.50  0.50
0.50  0.50  0.50  0.50  0.58  0.67  0.75  0.67  0.58  0.50  0.50  0.50  0.50  0.50  0.50  0.50  0.58  0.67  0.75  0.67  0.58  0.50  0.50  0.50
0.50  0.50  0.50  0.50  0.58  0.67  0.75  0.67  0.58  0.50  0.50  0.50  0.50  0.50  0.50  0.50  0.58  0.67  0.75  0.67  0.58  0.50  0.50  0.50
0.50  0.50  0.50  0.50  0.58  0.67  0.75  0.67  0.58  0.50  0.50  0.50  0.50  0.50  0.50  0.50  0.58  0.67  0.75  0.67  0.58  0.50  0.50  0.50
0.50  0.50  0.50  0.50  0.58  0.67  0.75  0.67  0.58  0.50  0.50  0.50  0.50  0.50  0.50  0.50  0.58  0.67  0.75  0.67  0.58  0.50  0.50  0.50
0.50  0.50  0.50  0.50  0.58  0.67  0.75  0.67  0.58  0.50  0.50  0.50  0.50  0.50  0.50  0.50  0.58  0.67  0.75  0.67  0.58  0.50  0.50  0.50
0.50  0.50  0.50  0.50  0.58  0.67  0.75  0.67  0.58  0.50  0.50  0.50  0.50  0.50  0.50  0.50  0.58  0.67  0.75  0.67  0.58  0.50  0.50  0.50
$beta by ik, ith
0.50  0.48  0.47  0.45  0.55  0.65  0.75  0.74  0.72  0.71  0.76  0.82  0.88  0.84  0.81  0.78  0.79  0.80  0.81  0.72  0.63  0.54  0.53  0.51
0.50  0.48  0.47  0.45  0.55  0.65  0.75  0.74  0.72  0.71  0.76  0.82  0.88  0.84  0.81  0.78  0.79  0.80  0.81  0.72  0.63  0.54  0.53  0.51
0.50  0.48  0.47  0.45  0.55  0.65  0.75  0.74  0.72  0.71  0.76  0.82  0.88  0.84  0.81  0.78  0.79  0.80  0.81  0.72  0.63  0.54  0.53  0.51
0.50  0.48  0.47  0.45  0.55  0.65  0.75  0.74  0.72  0.71  0.76  0.82  0.88  0.84  0.81  0.78  0.79  0.80  0.81  0.72  0.63  0.54  0.53  0.51
0.50  0.48  0.47  0.45  0.55  0.65  0.75  0.74  0.72  0.71  0.76  0.82  0.88  0.84  0.81  0.78  0.79  0.80  0.81  0.72  0.63  0.54  0.53  0.51
0.50  0.48  0.47  0.45  0.55  0.65  0.75  0.74  0.72  0.71  0.76  0.82  0.88  0.84  0.81  0.78  0.79  0.80  0.81  0.72  0.63  0.54  0.53  0.51
0.50  0.48  0.47  0.45  0.55  0.65  0.75  0.74  0.72  0.71  0.76  0.82  0.88  0.84  0.81  0.78  0.79  0.80  0.81  0.72  0.63  0.54  0.53  0.51
0.50  0.48  0.47  0.45  0.55  0.65  0.75  0.74  0.72  0.71  0.76  0.82  0.88  0.84  0.81  0.78  0.79  0.80  0.81  0.72  0.63  0.54  0.53  0.51
0.50  0.48  0.47  0.45  0.55  0.65  0.75  0.74  0.72  0.71  0.76  0.82  0.88  0.84  0.81  0.78  0.79  0.80  0.81  0.72  0.63  0.54  0.53  0.51
0.50  0.48  0.47  0.45  0.55  0.65  0.75  0.74  0.72  0.71  0.76  0.82  0.88  0.84  0.81  0.78  0.79  0.80  0.81  0.72  0.63  0.54  0.53  0.51
0.50  0.48  0.47  0.45  0.55  0.65  0.75  0.74  0.72  0.71  0.76  0.82  0.88  0.84  0.81  0.78  0.79  0.80  0.81  0.72  0.63  0.54  0.53  0.51
0.50  0.48  0.47  0.45  0.55  0.65  0.75  0.74  0.72  0.71  0.76  0.82  0.88  0.84  0.81  0.78  0.79  0.80  0.81  0.72  0.63  0.54  0.53  0.51
0.50  0.48  0.47  0.45  0.55  0.65  0.75  0.74  0.72  0.71  0.76  0.82  0.88  0.84  0.81  0.78  0.79  0.80  0.81  0.72  0.63  0.54  0.53  0.51
0.50  0.48  0.47  0.45  0.55  0.65  0.75  0.74  0.72  0.71  0.76  0.82  0.88  0.84  0.81  0.78  0.79  0.80  0.81  0.72  0.63  0.54  0.53  0.51
0.50  0.48  0.47  0.45  0.55  0.65  0.75  0.74  0.72  0.71  0.76  0.82  0.88  0.84  0.81  0.78  0.79  0.80  0.81  0.72  0.63  0.54  0.53  0.51
0.50  0.48  0.47  0.45  0.55  0.65  0.75  0.74  0.72  0.71  0.76  0.82  0.88  0.84  0.81  0.78  0.79  0.80  0.81  0.72  0.63  0.54  0.53  0.51
0.50  0.48  0.47  0.45  0.55  0.65  0.75  0.74  0.72  0.71  0.76  0.82  0.88  0.84  0.81  0.78  0.79  0.80  0.81  0.72  0.63  0.54  0.53  0.51
0.50  0.48  0.47  0.45  0.55  0.65  0.75  0.74  0.72  0.71  0.76  0.82  0.88  0.84  0.81  0.78  0.79  0.80  0.81  0.72  0.63  0.54  0.53  0.51
0.50  0.48  0.47  0.45  0.55  0.65  0.75  0.74  0.72  0.71  0.76  0.82  0.88  0.84  0.81  0.78  0.79  0.80  0.81  0.72  0.63  0.54  0.53  0.51
0.50  0.48  0.47  0.45  0.55  0.65  0.75  0.74  0.72  0.71  0.76  0.82  0.88  0.84  0.81  0.78  0.79  0.80  0.81  0.72  0.63  0.54  0.53  0.51
0.50  0.48  0.47  0.45  0.55  0.65  0.75  0.74  0.72  0.71  0.76  0.82  0.88  0.84  0.81  0.78  0.79  0.80  0.81  0.72  0.63  0.54  0.53  0.51
0.50  0.48  0.47  0.45  0.55  0.65  0.75  0.74  0.72  0.71  0.76  0.82  0.88  0.84  0.81  0.78  0.79  0.80  0.81  0.72  0.63  0.54  0.53  0.51
0.50  0.48  0.47  0.45  0.55  0.65  0.75  0.74  0.72  0.71  0.76  0.82  0.88  0.84  0.81  0.78  0.79  0.80  0.81  0.72  0.63  0.54  0.53  0.51
0.50  0.48  0.47  0.45  0.55  0.65  0.75  0.74  0.72  0.71  0.76  0.82  0.88  0.84  0.81  0.78  0.79  0.80  0.81  0.72  0.63  0.54  0.53  0.51
0.50  0.48  0.47  0.45  0.55  0.65  0.75  0.74  0.72  0.71  0.76  0.82  0.88  0.84  0.81  0.78  0.79  0.80  0.81  0.72  0.63  0.54  0.53  0.51
$ ilon ilat of the cell. lon: 8.0, 33.2
6   4
$ sizes of the cell in km
    37.235       41.955       48.539       58.006       53.013       48.917       44.478       48.917       53.013       58.006       48.539       41.955       37.235       41.955       48.539       58.006       53.013       48.917       44.478       48.917       53.013       58.006       48.539       41.955
$ mean alpha: 0.5625
$ mean beta: 0.678221272464
$alpha by ik, ith
0.50  0.50  0.50  0.50  0.58  0.67  0.75  0.67  0.58  0.50  0.50  0.50  0.50  0.50  0.50  0.50  0.58  0.67  0.75  0.67  0.58  0.50  0.50  0.50
0.50  0.50  0.50  0.50  0.58  0.67  0.75  0.67  0.58  0.50  0.50  0.50  0.50  0.50  0.50  0.50  0.58  0.67  0.75  0.67  0.58  0.50  0.50  0.50
0.50  0.50  0.50  0.50  0.58  0.67  0.75  0.67  0.58  0.50  0.50  0.50  0.50  0.50  0.50  0.50  0.58  0.67  0.75  0.67  0.58  0.50  0.50  0.50
0.50  0.50  0.50  0.50  0.58  0.67  0.75  0.67  0.58  0.50  0.50  0.50  0.50  0.50  0.50  0.50  0.58  0.67  0.75  0.67  0.58  0.50  0.50  0.50
0.50  0.50  0.50  0.50  0.58  0.67  0.75  0.67  0.58  0.50  0.50  0.50  0.50  0.50  0.50  0.50  0.58  0.67  0.75  0.67  0.58  0.50  0.50  0.50
0.50  0.50  0.50  0.50  0.58  0.67  0.75  0.67  0.58  0.50  0.50  0.50  0.50  0.50  0.50  0.50  0.58  0.67  0.75  0.67  0.58  0.50  0.50  0.50
0.50  0.50  0.50  0.50  0.58  0.67  0.75  0.67  0.58  0.50  0.50  0.50  0.50  0.50  0.50  0.50  0.58  0.67  0.75  0.67  0.58  0.50  0.50  0.50
0.50  0.50  0.50  0.50  0.58  0.67  0.75  0.67  0.58  0.50  0.50  0.50  0.50  0.50  0.50  0.50  0.58  0.67  0.75  0.67  0.58  0.50  0.50  0.50
0.50  0.50  0.50  0.50  0.58  0.67  0.75  0.67  0.58  0.50  0.50  0.50  0.50  0.50  0.50  0.50  0.58  0.67  0.75  0.67  0.58  0.50  0.50  0.50
0.50  0.50  0.50  0.50  0.58  0.67  0.75  0.67  0.58  0.50  0.50  0.50  0.50  0.50  0.50  0.50  0.58  0.67  0.75  0.67  0.58  0.50  0.50  0.50
0.50  0.50  0.50  0.50  0.58  0.67  0.75  0.67  0.58  0.50  0.50  0.50  0.50  0.50  0.50  0.50  0.58  0.67  0.75  0.67  0.58  0.50  0.50  0.50
0.50  0.50  0.50  0.50  0.58  0.67  0.75  0.67  0.58  0.50  0.50  0.50  0.50  0.50  0.50  0.50  0.58  0.67  0.75  0.67  0.58  0.50  0.50  0.50
0.50  0.50  0.50  0.50  0.58  0.67  0.75  0.67  0.58  0.50  0.50  0.50  0.50  0.50  0.50  0.50  0.58  0.67  0.75  0.67  0.58  0.50  0.50  0.50
0.50  0.50  0.50  0.50  0.58  0.67  0.75  0.67  0.58  0.50  0.50  0.50  0.50  0.50  0.50  0.50  0.58  0.67  0.75  0.67  0.58  0.50  0.50  0.50
0.50  0.50  0.50  0.50  0.58  0.67  0.75  0.67  0.58  0.50  0.50  0.50  0.50  0.50  0.50  0.50  0.58  0.67  0.75  0.67  0.58  0.50  0.50  0.50
0.50  0.50  0.50  0.50  0.58  0.67  0.75  0.67  0.58  0.50  0.50  0.50  0.50  0.50  0.50  0.50  0.58  0.67  0.75  0.67  0.58  0.50  0.50  0.50
0.50  0.50  0.50  0.50  0.58  0.67  0.75  0.67  0.58  0.50  0.50  0.50  0.50  0.50  0.50  0.50  0.58  0.67  0.75  0.67  0.58  0.50  0.50  0.50
0.50  0.50  0.50  0.50  0.58  0.67  0.75  0.67  0.58  0.50  0.50  0.50  0.50  0.50  0.50  0.50  0.58  0.67  0.75  0.67  0.58  0.50  0.50  0.50
0.50  0.50  0.50  0.50  0.58  0.67  0.75  0.67  0.58  0.50  0.50  0.50  0.50  0.50  0.50  0.50  0.58  0.67  0.75  0.67  0.58  0.50  0.50  0.50
0.50  0.50  0.50  0.50  0.58  0.67  0.75  0.67  0.58  0.50  0.50  0.50  0.50  0.50  0.50  0.50  0.58  0.67  0.75  0.67  0.58  0.50  0.50  0.50
0.50  0.50  0.50  0.50  0.58  0.67  0.75  0.67  0.58  0.50  0.50  0.50  0.50  0.50  0.50  0.50  0.58  0.67  0.75  0.67  0.58  0.50  0.50  0.50
0.50  0.50  0.50  0.50  0.58  0.67  0.75  0.67  0.58  0.50  0.50  0.50  0.50  0.50  0.50  0.50  0.58  0.67  0.75  0.67  0.58  0.50  0.50  0.50
0.50  0.50  0.50  0.50  0.58  0.67  0.75  0.67  0.58  0.50  0.50  0.50  0.50  0.50  0.50  0.50  0.58  0.67  0.75  0.67  0.58  0.50  0.50  0.50
0.50  0.50  0.50  0.50  0.58  0.67  0.75  0.67  0.58  0.50  0.50  0.50  0.50  0.50  0.50  0.50  0.58  0.67  0.75  0.67  0.58  0.50  0.50  0.50
0.50  0.50  0.50  0.50  0.58  0.67  0.75  0.67  0.58  0.50  0.50  0.50  0.50  0.50  0.50  0.50  0.58  0.67  0.75  0.67  0.58  0.50  0.50  0.50
$beta by ik, ith
0.50  0.48  0.47  0.45  0.55  0.65  0.75  0.74  0.72  0.71  0.76  0.82  0.87  0.84  0.81  0.78  0.79  0.80  0.81  0.72  0.63  0.54  0.53  0.51
0.50  0.48  0.47  0.45  0.55  0.65  0.75  0.74  0.72  0.71  0.76  0.82  0.87  0.84  0.81  0.78  0.79  0.80  0.81  0.72  0.63  0.54  0.53  0.51
0.50  0.48  0.47  0.45  0.55  0.65  0.75  0.74  0.72  0.71  0.76  0.82  0.87  0.84  0.81  0.78  0.79  0.80  0.81  0.72  0.63  0.54  0.53  0.51
0.50  0.48  0.47  0.45  0.55  0.65  0.75  0.74  0.72  0.71  0.76  0.82  0.87  0.84  0.81  0.78  0.79  0.80  0.81  0.72  0.63  0.54  0.53  0.51
0.50  0.48  0.47  0.45  0.55  0.65  0.75  0.74  0.72  0.71  0.76  0.82  0.87  0.84  0.81  0.78  0.79  0.80  0.81  0.72  0.63  0.54  0.53  0.51
0.50  0.48  0.47  0.45  0.55  0.65  0.75  0.74  0.72  0.71  0.76  0.82  0.87  0.84  0.81  0.78  0.79  0.80  0.81  0.72  0.63  0.54  0.53  0.51
0.50  0.48  0.47  0.45  0.55  0.65  0.75  0.74  0.72  0.71  0.76  0.82  0.87  0.84  0.81  0.78  0.79  0.80  0.81  0.72  0.63  0.54  0.53  0.51
0.50  0.48  0.47  0.45  0.55  0.65  0.75  0.74  0.72  0.71  0.76  0.82  0.87  0.84  0.81  0.78  0.79  0.80  0.81  0.72  0.63  0.54  0.53  0.51
0.50  0.48  0.47  0.45  0.55  0.65  0.75  0.74  0.72  0.71  0.76  0.82  0.87  0.84  0.81  0.78  0.79  0.80  0.81  0.72  0.63  0.54  0.53  0.51
0.50  0.48  0.47  0.45  0.55  0.65  0.75  0.74  0.72  0.71  0.76  0.82  0.87  0.84  0.81  0.78  0.79  0.80  0.81  0.72  0.63  0.54  0.53  0.51
0.50  0.48  0.47  0.45  0.55  0.65  0.75  0.74  0.72  0.71  0.76  0.82  0.87  0.84  0.81  0.78  0.79  0.80  0.81  0.72  0.63  0.54  0.53  0.51
0.50  0.48  0.47  0.45  0.55  0.65  0.75  0.74  0.72  0.71  0.76  0.82  0.87  0.84  0.81  0.78  0.79  0.80  0.81  0.72  0.63  0.54  0.53  0.51
0.50  0.48  0.47  0.45  0.55  0.65  0.75  0.74  0.72  0.71  0.76  0.82  0.87  0.84  0.81  0.78  0.79  0.80  0.81  0.72  0.63  0.54  0.53  0.51
0.50  0.48  0.47  0.45  0.55  0.65  0.75  0.74  0.72  0.71  0.76  0.82  0.87  0.84  0.81  0.78  0.79  0.80  0.81  0.72  0.63  0.54  0.53  0.51
0.50  0.48  0.47  0.45  0.55  0.65  0.75  0.74  0.72  0.71  0.76  0.82  0.87  0.84  0.81  0.78  0.79  0.80  0.81  0.72  0.63  0.54  0.53  0.51
0.50  0.48  0.47  0.45  0.55  0.65  0.75  0.74  0.72  0.71  0.76  0.82  0.87  0.84  0.81  0.78  0.79  0.80  0.81  0.72  0.63  0.54  0.53  0.51
0.50  0.48  0.47  0.45  0.55  0.65  0.75  0.74  0.72  0.71  0.76  0.82  0.87  0.84  0.81  0.78  0.79  0.80  0.81  0.72  0.63  0.54  0.53  0.51
0.50  0.48  0.47  0.45  0.55  0.65  0.75  0.74  0.72  0.71  0.76  0.82  0.87  0.84  0.81  0.78  0.79  0.80  0.81  0.72  0.63  0.54  0.53  0.51
0.50  0.48  0.47  0.45  0.55  0.65  0.75  0.74  0.72  0.71  0.76  0.82  0.87  0.84  0.81  0.78  0.79  0.80  0.81  0.72  0.63  0.54  0.53  0.51
0.50  0.48  0.47  0.45  0.55  0.65  0.75  0.74  0.72  0.71  0.76  0.82  0.87  0.84  0.81  0.78  0.79  0.80  0.81  0.72  0.63  0.54  0.53  0.51
0.50  0.48  0.47  0.45  0.55  0.65  0.75  0.74  0.72  0.71  0.76  0.82  0.87  0.84  0.81  0.78  0.79  0.80  0.81  0.72  0.63  0.54  0.53  0.51
0.50  0.48  0.47  0.45  0.55  0.65  0.75  0.74  0.72  0.71  0.76  0.82  0.87  0.84  0.81  0.78  0.79  0.80  0.81  0.72  0.63  0.54  0.53  0.51
0.50  0.48  0.47  0.45  0.55  0.65  0.75  0.74  0.72  0.71  0.76  0.82  0.87  0.84  0.81  0.78  0.79  0.80  0.81  0.72  0.63  0.54  0.53  0.51
0.50  0.48  0.47  0.45  0.55  0.65  0.75  0.74  0.72  0.71  0.76  0.82  0.87  0.84  0.81  0.78  0.79  0.80  0.81  0.72  0.63  0.54  0.53  0.51
0.50  0.48  0.47  0.45  0.55  0.65  0.75  0.74  0.72  0.71  0.76  0.82  0.87  0.84  0.81  0.78  0.79  0.80  0.81  0.72  0.63  0.54  0.53  0.51
$ ilon ilat of the cell. lon: 8.0, 33.6
6   5
$ sizes of the cell in km
    37.064       41.780       48.388       57.897       52.968       48.906       44.478       48.906       52.968       57.897       48.388       41.780       37.064       41.780       48.388       57.897       52.968       48.906       44.478       48.906       52.968       57.897       48.388       41.780
$ mean alpha: 0.5625
$ mean beta: 0.678221272464
$alpha by ik, ith
0.50  0.50  0.50  0.50  0.58  0.67  0.75  0.67  0.58  0.50  0.50  0.50  0.50  0.50  0.50  0.50  0.58  0.67  0.75  0.67  0.58  0.50  0.50  0.50
0.50  0.50  0.50  0.50  0.58  0.67  0.75  0.67  0.58  0.50  0.50  0.50  0.50  0.50  0.50  0.50  0.58  0.67  0.75  0.67  0.58  0.50  0.50  0.50
0.50  0.50  0.50  0.50  0.58  0.67  0.75  0.67  0.58  0.50  0.50  0.50  0.50  0.50  0.50  0.50  0.58  0.67  0.75  0.67  0.58  0.50  0.50  0.50
0.50  0.50  0.50  0.50  0.58  0.67  0.75  0.67  0.58  0.50  0.50  0.50  0.50  0.50  0.50  0.50  0.58  0.67  0.75  0.67  0.58  0.50  0.50  0.50
0.50  0.50  0.50  0.50  0.58  0.67  0.75  0.67  0.58  0.50  0.50  0.50  0.50  0.50  0.50  0.50  0.58  0.67  0.75  0.67  0.58  0.50  0.50  0.50
0.50  0.50  0.50  0.50  0.58  0.67  0.75  0.67  0.58  0.50  0.50  0.50  0.50  0.50  0.50  0.50  0.58  0.67  0.75  0.67  0.58  0.50  0.50  0.50
0.50  0.50  0.50  0.50  0.58  0.67  0.75  0.67  0.58  0.50  0.50  0.50  0.50  0.50  0.50  0.50  0.58  0.67  0.75  0.67  0.58  0.50  0.50  0.50
0.50  0.50  0.50  0.50  0.58  0.67  0.75  0.67  0.58  0.50  0.50  0.50  0.50  0.50  0.50  0.50  0.58  0.67  0.75  0.67  0.58  0.50  0.50  0.50
0.50  0.50  0.50  0.50  0.58  0.67  0.75  0.67  0.58  0.50  0.50  0.50  0.50  0.50  0.50  0.50  0.58  0.67  0.75  0.67  0.58  0.50  0.50  0.50
0.50  0.50  0.50  0.50  0.58  0.67  0.75  0.67  0.58  0.50  0.50  0.50  0.50  0.50  0.50  0.50  0.58  0.67  0.75  0.67  0.58  0.50  0.50  0.50
0.50  0.50  0.50  0.50  0.58  0.67  0.75  0.67  0.58  0.50  0.50  0.50  0.50  0.50  0.50  0.50  0.58  0.67  0.75  0.67  0.58  0.50  0.50  0.50
0.50  0.50  0.50  0.50  0.58  0.67  0.75  0.67  0.58  0.50  0.50  0.50  0.50  0.50  0.50  0.50  0.58  0.67  0.75  0.67  0.58  0.50  0.50  0.50
0.50  0.50  0.50  0.50  0.58  0.67  0.75  0.67  0.58  0.50  0.50  0.50  0.50  0.50  0.50  0.50  0.58  0.67  0.75  0.67  0.58  0.50  0.50  0.50
0.50  0.50  0.50  0.50  0.58  0.67  0.75  0.67  0.58  0.50  0.50  0.50  0.50  0.50  0.50  0.50  0.58  0.67  0.75  0.67  0.58  0.50  0.50  0.50
0.50  0.50  0.50  0.50  0.58  0.67  0.75  0.67  0.58  0.50  0.50  0.50  0.50  0.50  0.50  0.50  0.58  0.67  0.75  0.67  0.58  0.50  0.50  0.50
0.50  0.50  0.50  0.50  0.58  0.67  0.75  0.67  0.58  0.50  0.50  0.50  0.50  0.50  0.50  0.50  0.58  0.67  0.75  0.67  0.58  0.50  0.50  0.50
0.50  0.50  0.50  0.50  0.58  0.67  0.75  0.67  0.58  0.50  0.50  0.50  0.50  0.50  0.50  0.50  0.58  0.67  0.75  0.67  0.58  0.50  0.50  0.50
0.50  0.50  0.50  0.50  0.58  0.67  0.75  0.67  0.58  0.50  0.50  0.50  0.50  0.50  0.50  0.50  0.58  0.67  0.75  0.67  0.58  0.50  0.50  0.50
0.50  0.50  0.50  0.50  0.58  0.67  0.75  0.67  0.58  0.50  0.50  0.50  0.50  0.50  0.50  0.50  0.58  0.67  0.75  0.67  0.58  0.50  0.50  0.50
0.50  0.50  0.50  0.50  0.58  0.67  0.75  0.67  0.58  0.50  0.50  0.50  0.50  0.50  0.50  0.50  0.58  0.67  0.75  0.67  0.58  0.50  0.50  0.50
0.50  0.50  0.50  0.50  0.58  0.67  0.75  0.67  0.58  0.50  0.50  0.50  0.50  0.50  0.50  0.50  0.58  0.67  0.75  0.67  0.58  0.50  0.50  0.50
0.50  0.50  0.50  0.50  0.58  0.67  0.75  0.67  0.58  0.50  0.50  0.50  0.50  0.50  0.50  0.50  0.58  0.67  0.75  0.67  0.58  0.50  0.50  0.50
0.50  0.50  0.50  0.50  0.58  0.67  0.75  0.67  0.58  0.50  0.50  0.50  0.50  0.50  0.50  0.50  0.58  0.67  0.75  0.67  0.58  0.50  0.50  0.50
0.50  0.50  0.50  0.50  0.58  0.67  0.75  0.67  0.58  0.50  0.50  0.50  0.50  0.50  0.50  0.50  0.58  0.67  0.75  0.67  0.58  0.50  0.50  0.50
0.50  0.50  0.50  0.50  0.58  0.67  0.75  0.67  0.58  0.50  0.50  0.50  0.50  0.50  0.50  0.50  0.58  0.67  0.75  0.67  0.58  0.50  0.50  0.50
$beta by ik, ith
0.50  0.48  0.47  0.45  0.55  0.65  0.75  0.74  0.72  0.71  0.76  0.82  0.88  0.84  0.81  0.78  0.79  0.80  0.81  0.72  0.63  0.54  0.53  0.51
0.50  0.48  0.47  0.45  0.55  0.65  0.75  0.74  0.72  0.71  0.76  0.82  0.88  0.84  0.81  0.78  0.79  0.80  0.81  0.72  0.63  0.54  0.53  0.51
0.50  0.48  0.47  0.45  0.55  0.65  0.75  0.74  0.72  0.71  0.76  0.82  0.88  0.84  0.81  0.78  0.79  0.80  0.81  0.72  0.63  0.54  0.53  0.51
0.50  0.48  0.47  0.45  0.55  0.65  0.75  0.74  0.72  0.71  0.76  0.82  0.88  0.84  0.81  0.78  0.79  0.80  0.81  0.72  0.63  0.54  0.53  0.51
0.50  0.48  0.47  0.45  0.55  0.65  0.75  0.74  0.72  0.71  0.76  0.82  0.88  0.84  0.81  0.78  0.79  0.80  0.81  0.72  0.63  0.54  0.53  0.51
0.50  0.48  0.47  0.45  0.55  0.65  0.75  0.74  0.72  0.71  0.76  0.82  0.88  0.84  0.81  0.78  0.79  0.80  0.81  0.72  0.63  0.54  0.53  0.51
0.50  0.48  0.47  0.45  0.55  0.65  0.75  0.74  0.72  0.71  0.76  0.82  0.88  0.84  0.81  0.78  0.79  0.80  0.81  0.72  0.63  0.54  0.53  0.51
0.50  0.48  0.47  0.45  0.55  0.65  0.75  0.74  0.72  0.71  0.76  0.82  0.88  0.84  0.81  0.78  0.79  0.80  0.81  0.72  0.63  0.54  0.53  0.51
0.50  0.48  0.47  0.45  0.55  0.65  0.75  0.74  0.72  0.71  0.76  0.82  0.88  0.84  0.81  0.78  0.79  0.80  0.81  0.72  0.63  0.54  0.53  0.51
0.50  0.48  0.47  0.45  0.55  0.65  0.75  0.74  0.72  0.71  0.76  0.82  0.88  0.84  0.81  0.78  0.79  0.80  0.81  0.72  0.63  0.54  0.53  0.51
0.50  0.48  0.47  0.45  0.55  0.65  0.75  0.74  0.72  0.71  0.76  0.82  0.88  0.84  0.81  0.78  0.79  0.80  0.81  0.72  0.63  0.54  0.53  0.51
0.50  0.48  0.47  0.45  0.55  0.65  0.75  0.74  0.72  0.71  0.76  0.82  0.88  0.84  0.81  0.78  0.79  0.80  0.81  0.72  0.63  0.54  0.53  0.51
0.50  0.48  0.47  0.45  0.55  0.65  0.75  0.74  0.72  0.71  0.76  0.82  0.88  0.84  0.81  0.78  0.79  0.80  0.81  0.72  0.63  0.54  0.53  0.51
0.50  0.48  0.47  0.45  0.55  0.65  0.75  0.74  0.72  0.71  0.76  0.82  0.88  0.84  0.81  0.78  0.79  0.80  0.81  0.72  0.63  0.54  0.53  0.51
0.50  0.48  0.47  0.45  0.55  0.65  0.75  0.74  0.72  0.71  0.76  0.82  0.88  0.84  0.81  0.78  0.79  0.80  0.81  0.72  0.63  0.54  0.53  0.51
0.50  0.48  0.47  0.45  0.55  0.65  0.75  0.74  0.72  0.71  0.76  0.82  0.88  0.84  0.81  0.78  0.79  0.80  0.81  0.72  0.63  0.54  0.53  0.51
0.50  0.48  0.47  0.45  0.55  0.65  0.75  0.74  0.72  0.71  0.76  0.82  0.88  0.84  0.81  0.78  0.79  0.80  0.81  0.72  0.63  0.54  0.53  0.51
0.50  0.48  0.47  0.45  0.55  0.65  0.75  0.74  0.72  0.71  0.76  0.82  0.88  0.84  0.81  0.78  0.79  0.80  0.81  0.72  0.63  0.54  0.53  0.51
0.50  0.48  0.47  0.45  0.55  0.65  0.75  0.74  0.72  0.71  0.76  0.82  0.88  0.84  0.81  0.78  0.79  0.80  0.81  0.72  0.63  0.54  0.53  0.51
0.50  0.48  0.47  0.45  0.55  0.65  0.75  0.74  0.72  0.71  0.76  0.82  0.88  0.84  0.81  0.78  0.79  0.80  0.81  0.72  0.63  0.54  0.53  0.51
0.50  0.48  0.47  0.45  0.55  0.65  0.75  0.74  0.72  0.71  0.76  0.82  0.88  0.84  0.81  0.78  0.79  0.80  0.81  0.72  0.63  0.54  0.53  0.51
0.50  0.48  0.47  0.45  0.55  0.65  0.75  0.74  0.72  0.71  0.76  0.82  0.88  0.84  0.81  0.78  0.79  0.80  0.81  0.72  0.63  0.54  0.53  0.51
0.50  0.48  0.47  0.45  0.55  0.65  0.75  0.74  0.72  0.71  0.76  0.82  0.88  0.84  0.81  0.78  0.79  0.80  0.81  0.72  0.63  0.54  0.53  0.51
0.50  0.48  0.47  0.45  0.55  0.65  0.75  0.74  0.72  0.71  0.76  0.82  0.88  0.84  0.81  0.78  0.79  0.80  0.81  0.72  0.63  0.54  0.53  0.51
0.50  0.48  0.47  0.45  0.55  0.65  0.75  0.74  0.72  0.71  0.76  0.82  0.88  0.84  0.81  0.78  0.79  0.80  0.81  0.72  0.63  0.54  0.53  0.51
$ ilon ilat of the cell. lon: 8.0, 34.0
6   6
$ sizes of the cell in km
    36.891       41.604       48.236       57.786       52.921       48.895       44.478       48.895       52.921       57.786       48.236       41.604       36.891       41.604       48.236       57.786       52.921       48.895       44.478       48.895       52.921       57.786       48.236       41.604
$ mean alpha: 0.5625
$ mean beta: 0.678221272464
$alpha by ik, ith
0.50  0.50  0.50  0.50  0.58  0.67  0.75  0.67  0.58  0.50  0.50  0.50  0.50  0.50  0.50  0.50  0.58  0.67  0.75  0.67  0.58  0.50  0.50  0.50
0.50  0.50  0.50  0.50  0.58  0.67  0.75  0.67  0.58  0.50  0.50  0.50  0.50  0.50  0.50  0.50  0.58  0.67  0.75  0.67  0.58  0.50  0.50  0.50
0.50  0.50  0.50  0.50  0.58  0.67  0.75  0.67  0.58  0.50  0.50  0.50  0.50  0.50  0.50  0.50  0.58  0.67  0.75  0.67  0.58  0.50  0.50  0.50
0.50  0.50  0.50  0.50  0.58  0.67  0.75  0.67  0.58  0.50  0.50  0.50  0.50  0.50  0.50  0.50  0.58  0.67  0.75  0.67  0.58  0.50  0.50  0.50
0.50  0.50  0.50  0.50  0.58  0.67  0.75  0.67  0.58  0.50  0.50  0.50  0.50  0.50  0.50  0.50  0.58  0.67  0.75  0.67  0.58  0.50  0.50  0.50
0.50  0.50  0.50  0.50  0.58  0.67  0.75  0.67  0.58  0.50  0.50  0.50  0.50  0.50  0.50  0.50  0.58  0.67  0.75  0.67  0.58  0.50  0.50  0.50
0.50  0.50  0.50  0.50  0.58  0.67  0.75  0.67  0.58  0.50  0.50  0.50  0.50  0.50  0.50  0.50  0.58  0.67  0.75  0.67  0.58  0.50  0.50  0.50
0.50  0.50  0.50  0.50  0.58  0.67  0.75  0.67  0.58  0.50  0.50  0.50  0.50  0.50  0.50  0.50  0.58  0.67  0.75  0.67  0.58  0.50  0.50  0.50
0.50  0.50  0.50  0.50  0.58  0.67  0.75  0.67  0.58  0.50  0.50  0.50  0.50  0.50  0.50  0.50  0.58  0.67  0.75  0.67  0.58  0.50  0.50  0.50
0.50  0.50  0.50  0.50  0.58  0.67  0.75  0.67  0.58  0.50  0.50  0.50  0.50  0.50  0.50  0.50  0.58  0.67  0.75  0.67  0.58  0.50  0.50  0.50
0.50  0.50  0.50  0.50  0.58  0.67  0.75  0.67  0.58  0.50  0.50  0.50  0.50  0.50  0.50  0.50  0.58  0.67  0.75  0.67  0.58  0.50  0.50  0.50
0.50  0.50  0.50  0.50  0.58  0.67  0.75  0.67  0.58  0.50  0.50  0.50  0.50  0.50  0.50  0.50  0.58  0.67  0.75  0.67  0.58  0.50  0.50  0.50
0.50  0.50  0.50  0.50  0.58  0.67  0.75  0.67  0.58  0.50  0.50  0.50  0.50  0.50  0.50  0.50  0.58  0.67  0.75  0.67  0.58  0.50  0.50  0.50
0.50  0.50  0.50  0.50  0.58  0.67  0.75  0.67  0.58  0.50  0.50  0.50  0.50  0.50  0.50  0.50  0.58  0.67  0.75  0.67  0.58  0.50  0.50  0.50
0.50  0.50  0.50  0.50  0.58  0.67  0.75  0.67  0.58  0.50  0.50  0.50  0.50  0.50  0.50  0.50  0.58  0.67  0.75  0.67  0.58  0.50  0.50  0.50
0.50  0.50  0.50  0.50  0.58  0.67  0.75  0.67  0.58  0.50  0.50  0.50  0.50  0.50  0.50  0.50  0.58  0.67  0.75  0.67  0.58  0.50  0.50  0.50
0.50  0.50  0.50  0.50  0.58  0.67  0.75  0.67  0.58  0.50  0.50  0.50  0.50  0.50  0.50  0.50  0.58  0.67  0.75  0.67  0.58  0.50  0.50  0.50
0.50  0.50  0.50  0.50  0.58  0.67  0.75  0.67  0.58  0.50  0.50  0.50  0.50  0.50  0.50  0.50  0.58  0.67  0.75  0.67  0.58  0.50  0.50  0.50
0.50  0.50  0.50  0.50  0.58  0.67  0.75  0.67  0.58  0.50  0.50  0.50  0.50  0.50  0.50  0.50  0.58  0.67  0.75  0.67  0.58  0.50  0.50  0.50
0.50  0.50  0.50  0.50  0.58  0.67  0.75  0.67  0.58  0.50  0.50  0.50  0.50  0.50  0.50  0.50  0.58  0.67  0.75  0.67  0.58  0.50  0.50  0.50
0.50  0.50  0.50  0.50  0.58  0.67  0.75  0.67  0.58  0.50  0.50  0.50  0.50  0.50  0.50  0.50  0.58  0.67  0.75  0.67  0.58  0.50  0.50  0.50
0.50  0.50  0.50  0.50  0.58  0.67  0.75  0.67  0.58  0.50  0.50  0.50  0.50  0.50  0.50  0.50  0.58  0.67  0.75  0.67  0.58  0.50  0.50  0.50
0.50  0.50  0.50  0.50  0.58  0.67  0.75  0.67  0.58  0.50  0.50  0.50  0.50  0.50  0.50  0.50  0.58  0.67  0.75  0.67  0.58  0.50  0.50  0.50
0.50  0.50  0.50  0.50  0.58  0.67  0.75  0.67  0.58  0.50  0.50  0.50  0.50  0.50  0.50  0.50  0.58  0.67  0.75  0.67  0.58  0.50  0.50  0.50
0.50  0.50  0.50  0.50  0.58  0.67  0.75  0.67  0.58  0.50  0.50  0.50  0.50  0.50  0.50  0.50  0.58  0.67  0.75  0.67  0.58  0.50  0.50  0.50
$beta by ik, ith
0.50  0.48  0.47  0.45  0.55  0.65  0.75  0.74  0.72  0.71  0.76  0.82  0.87  0.84  0.81  0.78  0.79  0.80  0.81  0.72  0.63  0.54  0.53  0.51
0.50  0.48  0.47  0.45  0.55  0.65  0.75  0.74  0.72  0.71  0.76  0.82  0.87  0.84  0.81  0.78  0.79  0.80  0.81  0.72  0.63  0.54  0.53  0.51
0.50  0.48  0.47  0.45  0.55  0.65  0.75  0.74  0.72  0.71  0.76  0.82  0.87  0.84  0.81  0.78  0.79  0.80  0.81  0.72  0.63  0.54  0.53  0.51
0.50  0.48  0.47  0.45  0.55  0.65  0.75  0.74  0.72  0.71  0.76  0.82  0.87  0.84  0.81  0.78  0.79  0.80  0.81  0.72  0.63  0.54  0.53  0.51
0.50  0.48  0.47  0.45  0.55  0.65  0.75  0.74  0.72  0.71  0.76  0.82  0.87  0.84  0.81  0.78  0.79  0.80  0.81  0.72  0.63  0.54  0.53  0.51
0.50  0.48  0.47  0.45  0.55  0.65  0.75  0.74  0.72  0.71  0.76  0.82  0.87  0.84  0.81  0.78  0.79  0.80  0.81  0.72  0.63  0.54  0.53  0.51
0.50  0.48  0.47  0.45  0.55  0.65  0.75  0.74  0.72  0.71  0.76  0.82  0.87  0.84  0.81  0.78  0.79  0.80  0.81  0.72  0.63  0.54  0.53  0.51
0.50  0.48  0.47  0.45  0.55  0.65  0.75  0.74  0.72  0.71  0.76  0.82  0.87  0.84  0.81  0.78  0.79  0.80  0.81  0.72  0.63  0.54  0.53  0.51
0.50  0.48  0.47  0.45  0.55  0.65  0.75  0.74  0.72  0.71  0.76  0.82  0.87  0.84  0.81  0.78  0.79  0.80  0.81  0.72  0.63  0.54  0.53  0.51
0.50  0.48  0.47  0.45  0.55  0.65  0.75  0.74  0.72  0.71  0.76  0.82  0.87  0.84  0.81  0.78  0.79  0.80  0.81  0.72  0.63  0.54  0.53  0.51
0.50  0.48  0.47  0.45  0.55  0.65  0.75  0.74  0.72  0.71  0.76  0.82  0.87  0.84  0.81  0.78  0.79  0.80  0.81  0.72  0.63  0.54  0.53  0.51
0.50  0.48  0.47  0.45  0.55  0.65  0.75  0.74  0.72  0.71  0.76  0.82  0.87  0.84  0.81  0.78  0.79  0.80  0.81  0.72  0.63  0.54  0.53  0.51
0.50  0.48  0.47  0.45  0.55  0.65  0.75  0.74  0.72  0.71  0.76  0.82  0.87  0.84  0.81  0.78  0.79  0.80  0.81  0.72  0.63  0.54  0.53  0.51
0.50  0.48  0.47  0.45  0.55  0.65  0.75  0.74  0.72  0.71  0.76  0.82  0.87  0.84  0.81  0.78  0.79  0.80  0.81  0.72  0.63  0.54  0.53  0.51
0.50  0.48  0.47  0.45  0.55  0.65  0.75  0.74  0.72  0.71  0.76  0.82  0.87  0.84  0.81  0.78  0.79  0.80  0.81  0.72  0.63  0.54  0.53  0.51
0.50  0.48  0.47  0.45  0.55  0.65  0.75  0.74  0.72  0.71  0.76  0.82  0.87  0.84  0.81  0.78  0.79  0.80  0.81  0.72  0.63  0.54  0.53  0.51
0.50  0.48  0.47  0.45  0.55  0.65  0.75  0.74  0.72  0.71  0.76  0.82  0.87  0.84  0.81  0.78  0.79  0.80  0.81  0.72  0.63  0.54  0.53  0.51
0.50  0.48  0.47  0.45  0.55  0.65  0.75  0.74  0.72  0.71  0.76  0.82  0.87  0.84  0.81  0.78  0.79  0.80  0.81  0.72  0.63  0.54  0.53  0.51
0.50  0.48  0.47  0.45  0.55  0.65  0.75  0.74  0.72  0.71  0.76  0.82  0.87  0.84  0.81  0.78  0.79  0.80  0.81  0.72  0.63  0.54  0.53  0.51
0.50  0.48  0.47  0.45  0.55  0.65  0.75  0.74  0.72  0.71  0.76  0.82  0.87  0.84  0.81  0.78  0.79  0.80  0.81  0.72  0.63  0.54  0.53  0.51
0.50  0.48  0.47  0.45  0.55  0.65  0.75  0.74  0.72  0.71  0.76  0.82  0.87  0.84  0.81  0.78  0.79  0.80  0.81  0.72  0.63  0.54  0.53  0.51
0.50  0.48  0.47  0.45  0.55  0.65  0.75  0.74  0.72  0.71  0.76  0.82  0.87  0.84  0.81  0.78  0.79  0.80  0.81  0.72  0.63  0.54  0.53  0.51
0.50  0.48  0.47  0.45  0.55  0.65  0.75  0.74  0.72  0.71  0.76  0.82  0.87  0.84  0.81  0.78  0.79  0.80  0.81  0.72  0.63  0.54  0.53  0.51
0.50  0.48  0.47  0.45  0.55  0.65  0.75  0.74  0.72  0.71  0.76  0.82  0.87  0.84  0.81  0.78  0.79  0.80  0.81  0.72  0.63  0.54  0.53  0.51
0.50  0.48  0.47  0.45  0.55  0.65  0.75  0.74  0.72  0.71  0.76  0.82  0.87  0.84  0.81  0.78  0.79  0.80  0.81  0.72  0.63  0.54  0.53  0.51
$ ilon ilat of the cell. lon: 8.0, 34.4
6   7
$ sizes of the cell in km
    36.717       41.426       48.083       57.675       52.875       48.884       44.478       48.884       52.875       57.675       48.083       41.426       36.717       41.426       48.083       57.675       52.875       48.884       44.478       48.884       52.875       57.675       48.083       41.426
$ mean alpha: 0.5625
$ mean beta: 0.678221272464
$alpha by ik, ith
0.50  0.50  0.50  0.50  0.58  0.67  0.75  0.67  0.58  0.50  0.50  0.50  0.50  0.50  0.50  0.50  0.58  0.67  0.75  0.67  0.58  0.50  0.50  0.50
0.50  0.50  0.50  0.50  0.58  0.67  0.75  0.67  0.58  0.50  0.50  0.50  0.50  0.50  0.50  0.50  0.58  0.67  0.75  0.67  0.58  0.50  0.50  0.50
0.50  0.50  0.50  0.50  0.58  0.67  0.75  0.67  0.58  0.50  0.50  0.50  0.50  0.50  0.50  0.50  0.58  0.67  0.75  0.67  0.58  0.50  0.50  0.50
0.50  0.50  0.50  0.50  0.58  0.67  0.75  0.67  0.58  0.50  0.50  0.50  0.50  0.50  0.50  0.50  0.58  0.67  0.75  0.67  0.58  0.50  0.50  0.50
0.50  0.50  0.50  0.50  0.58  0.67  0.75  0.67  0.58  0.50  0.50  0.50  0.50  0.50  0.50  0.50  0.58  0.67  0.75  0.67  0.58  0.50  0.50  0.50
0.50  0.50  0.50  0.50  0.58  0.67  0.75  0.67  0.58  0.50  0.50  0.50  0.50  0.50  0.50  0.50  0.58  0.67  0.75  0.67  0.58  0.50  0.50  0.50
0.50  0.50  0.50  0.50  0.58  0.67  0.75  0.67  0.58  0.50  0.50  0.50  0.50  0.50  0.50  0.50  0.58  0.67  0.75  0.67  0.58  0.50  0.50  0.50
0.50  0.50  0.50  0.50  0.58  0.67  0.75  0.67  0.58  0.50  0.50  0.50  0.50  0.50  0.50  0.50  0.58  0.67  0.75  0.67  0.58  0.50  0.50  0.50
0.50  0.50  0.50  0.50  0.58  0.67  0.75  0.67  0.58  0.50  0.50  0.50  0.50  0.50  0.50  0.50  0.58  0.67  0.75  0.67  0.58  0.50  0.50  0.50
0.50  0.50  0.50  0.50  0.58  0.67  0.75  0.67  0.58  0.50  0.50  0.50  0.50  0.50  0.50  0.50  0.58  0.67  0.75  0.67  0.58  0.50  0.50  0.50
0.50  0.50  0.50  0.50  0.58  0.67  0.75  0.67  0.58  0.50  0.50  0.50  0.50  0.50  0.50  0.50  0.58  0.67  0.75  0.67  0.58  0.50  0.50  0.50
0.50  0.50  0.50  0.50  0.58  0.67  0.75  0.67  0.58  0.50  0.50  0.50  0.50  0.50  0.50  0.50  0.58  0.67  0.75  0.67  0.58  0.50  0.50  0.50
0.50  0.50  0.50  0.50  0.58  0.67  0.75  0.67  0.58  0.50  0.50  0.50  0.50  0.50  0.50  0.50  0.58  0.67  0.75  0.67  0.58  0.50  0.50  0.50
0.50  0.50  0.50  0.50  0.58  0.67  0.75  0.67  0.58  0.50  0.50  0.50  0.50  0.50  0.50  0.50  0.58  0.67  0.75  0.67  0.58  0.50  0.50  0.50
0.50  0.50  0.50  0.50  0.58  0.67  0.75  0.67  0.58  0.50  0.50  0.50  0.50  0.50  0.50  0.50  0.58  0.67  0.75  0.67  0.58  0.50  0.50  0.50
0.50  0.50  0.50  0.50  0.58  0.67  0.75  0.67  0.58  0.50  0.50  0.50  0.50  0.50  0.50  0.50  0.58  0.67  0.75  0.67  0.58  0.50  0.50  0.50
0.50  0.50  0.50  0.50  0.58  0.67  0.75  0.67  0.58  0.50  0.50  0.50  0.50  0.50  0.50  0.50  0.58  0.67  0.75  0.67  0.58  0.50  0.50  0.50
0.50  0.50  0.50  0.50  0.58  0.67  0.75  0.67  0.58  0.50  0.50  0.50  0.50  0.50  0.50  0.50  0.58  0.67  0.75  0.67  0.58  0.50  0.50  0.50
0.50  0.50  0.50  0.50  0.58  0.67  0.75  0.67  0.58  0.50  0.50  0.50  0.50  0.50  0.50  0.50  0.58  0.67  0.75  0.67  0.58  0.50  0.50  0.50
0.50  0.50  0.50  0.50  0.58  0.67  0.75  0.67  0.58  0.50  0.50  0.50  0.50  0.50  0.50  0.50  0.58  0.67  0.75  0.67  0.58  0.50  0.50  0.50
0.50  0.50  0.50  0.50  0.58  0.67  0.75  0.67  0.58  0.50  0.50  0.50  0.50  0.50  0.50  0.50  0.58  0.67  0.75  0.67  0.58  0.50  0.50  0.50
0.50  0.50  0.50  0.50  0.58  0.67  0.75  0.67  0.58  0.50  0.50  0.50  0.50  0.50  0.50  0.50  0.58  0.67  0.75  0.67  0.58  0.50  0.50  0.50
0.50  0.50  0.50  0.50  0.58  0.67  0.75  0.67  0.58  0.50  0.50  0.50  0.50  0.50  0.50  0.50  0.58  0.67  0.75  0.67  0.58  0.50  0.50  0.50
0.50  0.50  0.50  0.50  0.58  0.67  0.75  0.67  0.58  0.50  0.50  0.50  0.50  0.50  0.50  0.50  0.58  0.67  0.75  0.67  0.58  0.50  0.50  0.50
0.50  0.50  0.50  0.50  0.58  0.67  0.75  0.67  0.58  0.50  0.50  0.50  0.50  0.50  0.50  0.50  0.58  0.67  0.75  0.67  0.58  0.50  0.50  0.50
$beta by ik, ith
0.50  0.48  0.47  0.45  0.55  0.65  0.75  0.74  0.72  0.71  0.76  0.82  0.88  0.84  0.81  0.78  0.79  0.80  0.81  0.72  0.63  0.54  0.53  0.51
0.50  0.48  0.47  0.45  0.55  0.65  0.75  0.74  0.72  0.71  0.76  0.82  0.88  0.84  0.81  0.78  0.79  0.80  0.81  0.72  0.63  0.54  0.53  0.51
0.50  0.48  0.47  0.45  0.55  0.65  0.75  0.74  0.72  0.71  0.76  0.82  0.88  0.84  0.81  0.78  0.79  0.80  0.81  0.72  0.63  0.54  0.53  0.51
0.50  0.48  0.47  0.45  0.55  0.65  0.75  0.74  0.72  0.71  0.76  0.82  0.88  0.84  0.81  0.78  0.79  0.80  0.81  0.72  0.63  0.54  0.53  0.51
0.50  0.48  0.47  0.45  0.55  0.65  0.75  0.74  0.72  0.71  0.76  0.82  0.88  0.84  0.81  0.78  0.79  0.80  0.81  0.72  0.63  0.54  0.53  0.51
0.50  0.48  0.47  0.45  0.55  0.65  0.75  0.74  0.72  0.71  0.76  0.82  0.88  0.84  0.81  0.78  0.79  0.80  0.81  0.72  0.63  0.54  0.53  0.51
0.50  0.48  0.47  0.45  0.55  0.65  0.75  0.74  0.72  0.71  0.76  0.82  0.88  0.84  0.81  0.78  0.79  0.80  0.81  0.72  0.63  0.54  0.53  0.51
0.50  0.48  0.47  0.45  0.55  0.65  0.75  0.74  0.72  0.71  0.76  0.82  0.88  0.84  0.81  0.78  0.79  0.80  0.81  0.72  0.63  0.54  0.53  0.51
0.50  0.48  0.47  0.45  0.55  0.65  0.75  0.74  0.72  0.71  0.76  0.82  0.88  0.84  0.81  0.78  0.79  0.80  0.81  0.72  0.63  0.54  0.53  0.51
0.50  0.48  0.47  0.45  0.55  0.65  0.75  0.74  0.72  0.71  0.76  0.82  0.88  0.84  0.81  0.78  0.79  0.80  0.81  0.72  0.63  0.54  0.53  0.51
0.50  0.48  0.47  0.45  0.55  0.65  0.75  0.74  0.72  0.71  0.76  0.82  0.88  0.84  0.81  0.78  0.79  0.80  0.81  0.72  0.63  0.54  0.53  0.51
0.50  0.48  0.47  0.45  0.55  0.65  0.75  0.74  0.72  0.71  0.76  0.82  0.88  0.84  0.81  0.78  0.79  0.80  0.81  0.72  0.63  0.54  0.53  0.51
0.50  0.48  0.47  0.45  0.55  0.65  0.75  0.74  0.72  0.71  0.76  0.82  0.88  0.84  0.81  0.78  0.79  0.80  0.81  0.72  0.63  0.54  0.53  0.51
0.50  0.48  0.47  0.45  0.55  0.65  0.75  0.74  0.72  0.71  0.76  0.82  0.88  0.84  0.81  0.78  0.79  0.80  0.81  0.72  0.63  0.54  0.53  0.51
0.50  0.48  0.47  0.45  0.55  0.65  0.75  0.74  0.72  0.71  0.76  0.82  0.88  0.84  0.81  0.78  0.79  0.80  0.81  0.72  0.63  0.54  0.53  0.51
0.50  0.48  0.47  0.45  0.55  0.65  0.75  0.74  0.72  0.71  0.76  0.82  0.88  0.84  0.81  0.78  0.79  0.80  0.81  0.72  0.63  0.54  0.53  0.51
0.50  0.48  0.47  0.45  0.55  0.65  0.75  0.74  0.72  0.71  0.76  0.82  0.88  0.84  0.81  0.78  0.79  0.80  0.81  0.72  0.63  0.54  0.53  0.51
0.50  0.48  0.47  0.45  0.55  0.65  0.75  0.74  0.72  0.71  0.76  0.82  0.88  0.84  0.81  0.78  0.79  0.80  0.81  0.72  0.63  0.54  0.53  0.51
0.50  0.48  0.47  0.45  0.55  0.65  0.75  0.74  0.72  0.71  0.76  0.82  0.88  0.84  0.81  0.78  0.79  0.80  0.81  0.72  0.63  0.54  0.53  0.51
0.50  0.48  0.47  0.45  0.55  0.65  0.75  0.74  0.72  0.71  0.76  0.82  0.88  0.84  0.81  0.78  0.79  0.80  0.81  0.72  0.63  0.54  0.53  0.51
0.50  0.48  0.47  0.45  0.55  0.65  0.75  0.74  0.72  0.71  0.76  0.82  0.88  0.84  0.81  0.78  0.79  0.80  0.81  0.72  0.63  0.54  0.53  0.51
0.50  0.48  0.47  0.45  0.55  0.65  0.75  0.74  0.72  0.71  0.76  0.82  0.88  0.84  0.81  0.78  0.79  0.80  0.81  0.72  0.63  0.54  0.53  0.51
0.50  0.48  0.47  0.45  0.55  0.65  0.75  0.74  0.72  0.71  0.76  0.82  0.88  0.84  0.81  0.78  0.79  0.80  0.81  0.72  0.63  0.54  0.53  0.51
0.50  0.48  0.47  0.45  0.55  0.65  0.75  0.74  0.72  0.71  0.76  0.82  0.88  0.84  0.81  0.78  0.79  0.80  0.81  0.72  0.63  0.54  0.53  0.51
0.50  0.48  0.47  0.45  0.55  0.65  0.75  0.74  0.72  0.71  0.76  0.82  0.88  0.84  0.81  0.78  0.79  0.80  0.81  0.72  0.63  0.54  0.53  0.51
$ ilon ilat of the cell. lon: 8.0, 34.8
6   8
$ sizes of the cell in km
    36.541       41.246       47.928       57.563       52.828       48.874       44.478       48.874       52.828       57.563       47.928       41.246       36.541       41.246       47.928       57.563       52.828       48.874       44.478       48.874       52.828       57.563       47.928       41.246
$ mean alpha: 0.5625
$ mean beta: 0.678221272464
$alpha by ik, ith
0.50  0.50  0.50  0.50  0.58  0.67  0.75  0.67  0.58  0.50  0.50  0.50  0.50  0.50  0.50  0.50  0.58  0.67  0.75  0.67  0.58  0.50  0.50  0.50
0.50  0.50  0.50  0.50  0.58  0.67  0.75  0.67  0.58  0.50  0.50  0.50  0.50  0.50  0.50  0.50  0.58  0.67  0.75  0.67  0.58  0.50  0.50  0.50
0.50  0.50  0.50  0.50  0.58  0.67  0.75  0.67  0.58  0.50  0.50  0.50  0.50  0.50  0.50  0.50  0.58  0.67  0.75  0.67  0.58  0.50  0.50  0.50
0.50  0.50  0.50  0.50  0.58  0.67  0.75  0.67  0.58  0.50  0.50  0.50  0.50  0.50  0.50  0.50  0.58  0.67  0.75  0.67  0.58  0.50  0.50  0.50
0.50  0.50  0.50  0.50  0.58  0.67  0.75  0.67  0.58  0.50  0.50  0.50  0.50  0.50  0.50  0.50  0.58  0.67  0.75  0.67  0.58  0.50  0.50  0.50
0.50  0.50  0.50  0.50  0.58  0.67  0.75  0.67  0.58  0.50  0.50  0.50  0.50  0.50  0.50  0.50  0.58  0.67  0.75  0.67  0.58  0.50  0.50  0.50
0.50  0.50  0.50  0.50  0.58  0.67  0.75  0.67  0.58  0.50  0.50  0.50  0.50  0.50  0.50  0.50  0.58  0.67  0.75  0.67  0.58  0.50  0.50  0.50
0.50  0.50  0.50  0.50  0.58  0.67  0.75  0.67  0.58  0.50  0.50  0.50  0.50  0.50  0.50  0.50  0.58  0.67  0.75  0.67  0.58  0.50  0.50  0.50
0.50  0.50  0.50  0.50  0.58  0.67  0.75  0.67  0.58  0.50  0.50  0.50  0.50  0.50  0.50  0.50  0.58  0.67  0.75  0.67  0.58  0.50  0.50  0.50
0.50  0.50  0.50  0.50  0.58  0.67  0.75  0.67  0.58  0.50  0.50  0.50  0.50  0.50  0.50  0.50  0.58  0.67  0.75  0.67  0.58  0.50  0.50  0.50
0.50  0.50  0.50  0.50  0.58  0.67  0.75  0.67  0.58  0.50  0.50  0.50  0.50  0.50  0.50  0.50  0.58  0.67  0.75  0.67  0.58  0.50  0.50  0.50
0.50  0.50  0.50  0.50  0.58  0.67  0.75  0.67  0.58  0.50  0.50  0.50  0.50  0.50  0.50  0.50  0.58  0.67  0.75  0.67  0.58  0.50  0.50  0.50
0.50  0.50  0.50  0.50  0.58  0.67  0.75  0.67  0.58  0.50  0.50  0.50  0.50  0.50  0.50  0.50  0.58  0.67  0.75  0.67  0.58  0.50  0.50  0.50
0.50  0.50  0.50  0.50  0.58  0.67  0.75  0.67  0.58  0.50  0.50  0.50  0.50  0.50  0.50  0.50  0.58  0.67  0.75  0.67  0.58  0.50  0.50  0.50
0.50  0.50  0.50  0.50  0.58  0.67  0.75  0.67  0.58  0.50  0.50  0.50  0.50  0.50  0.50  0.50  0.58  0.67  0.75  0.67  0.58  0.50  0.50  0.50
0.50  0.50  0.50  0.50  0.58  0.67  0.75  0.67  0.58  0.50  0.50  0.50  0.50  0.50  0.50  0.50  0.58  0.67  0.75  0.67  0.58  0.50  0.50  0.50
0.50  0.50  0.50  0.50  0.58  0.67  0.75  0.67  0.58  0.50  0.50  0.50  0.50  0.50  0.50  0.50  0.58  0.67  0.75  0.67  0.58  0.50  0.50  0.50
0.50  0.50  0.50  0.50  0.58  0.67  0.75  0.67  0.58  0.50  0.50  0.50  0.50  0.50  0.50  0.50  0.58  0.67  0.75  0.67  0.58  0.50  0.50  0.50
0.50  0.50  0.50  0.50  0.58  0.67  0.75  0.67  0.58  0.50  0.50  0.50  0.50  0.50  0.50  0.50  0.58  0.67  0.75  0.67  0.58  0.50  0.50  0.50
0.50  0.50  0.50  0.50  0.58  0.67  0.75  0.67  0.58  0.50  0.50  0.50  0.50  0.50  0.50  0.50  0.58  0.67  0.75  0.67  0.58  0.50  0.50  0.50
0.50  0.50  0.50  0.50  0.58  0.67  0.75  0.67  0.58  0.50  0.50  0.50  0.50  0.50  0.50  0.50  0.58  0.67  0.75  0.67  0.58  0.50  0.50  0.50
0.50  0.50  0.50  0.50  0.58  0.67  0.75  0.67  0.58  0.50  0.50  0.50  0.50  0.50  0.50  0.50  0.58  0.67  0.75  0.67  0.58  0.50  0.50  0.50
0.50  0.50  0.50  0.50  0.58  0.67  0.75  0.67  0.58  0.50  0.50  0.50  0.50  0.50  0.50  0.50  0.58  0.67  0.75  0.67  0.58  0.50  0.50  0.50
0.50  0.50  0.50  0.50  0.58  0.67  0.75  0.67  0.58  0.50  0.50  0.50  0.50  0.50  0.50  0.50  0.58  0.67  0.75  0.67  0.58  0.50  0.50  0.50
0.50  0.50  0.50  0.50  0.58  0.67  0.75  0.67  0.58  0.50  0.50  0.50  0.50  0.50  0.50  0.50  0.58  0.67  0.75  0.67  0.58  0.50  0.50  0.50
$beta by ik, ith
0.50  0.48  0.47  0.45  0.55  0.65  0.75  0.74  0.72  0.71  0.76  0.82  0.87  0.84  0.81  0.78  0.79  0.80  0.81  0.72  0.63  0.54  0.53  0.51
0.50  0.48  0.47  0.45  0.55  0.65  0.75  0.74  0.72  0.71  0.76  0.82  0.87  0.84  0.81  0.78  0.79  0.80  0.81  0.72  0.63  0.54  0.53  0.51
0.50  0.48  0.47  0.45  0.55  0.65  0.75  0.74  0.72  0.71  0.76  0.82  0.87  0.84  0.81  0.78  0.79  0.80  0.81  0.72  0.63  0.54  0.53  0.51
0.50  0.48  0.47  0.45  0.55  0.65  0.75  0.74  0.72  0.71  0.76  0.82  0.87  0.84  0.81  0.78  0.79  0.80  0.81  0.72  0.63  0.54  0.53  0.51
0.50  0.48  0.47  0.45  0.55  0.65  0.75  0.74  0.72  0.71  0.76  0.82  0.87  0.84  0.81  0.78  0.79  0.80  0.81  0.72  0.63  0.54  0.53  0.51
0.50  0.48  0.47  0.45  0.55  0.65  0.75  0.74  0.72  0.71  0.76  0.82  0.87  0.84  0.81  0.78  0.79  0.80  0.81  0.72  0.63  0.54  0.53  0.51
0.50  0.48  0.47  0.45  0.55  0.65  0.75  0.74  0.72  0.71  0.76  0.82  0.87  0.84  0.81  0.78  0.79  0.80  0.81  0.72  0.63  0.54  0.53  0.51
0.50  0.48  0.47  0.45  0.55  0.65  0.75  0.74  0.72  0.71  0.76  0.82  0.87  0.84  0.81  0.78  0.79  0.80  0.81  0.72  0.63  0.54  0.53  0.51
0.50  0.48  0.47  0.45  0.55  0.65  0.75  0.74  0.72  0.71  0.76  0.82  0.87  0.84  0.81  0.78  0.79  0.80  0.81  0.72  0.63  0.54  0.53  0.51
0.50  0.48  0.47  0.45  0.55  0.65  0.75  0.74  0.72  0.71  0.76  0.82  0.87  0.84  0.81  0.78  0.79  0.80  0.81  0.72  0.63  0.54  0.53  0.51
0.50  0.48  0.47  0.45  0.55  0.65  0.75  0.74  0.72  0.71  0.76  0.82  0.87  0.84  0.81  0.78  0.79  0.80  0.81  0.72  0.63  0.54  0.53  0.51
0.50  0.48  0.47  0.45  0.55  0.65  0.75  0.74  0.72  0.71  0.76  0.82  0.87  0.84  0.81  0.78  0.79  0.80  0.81  0.72  0.63  0.54  0.53  0.51
0.50  0.48  0.47  0.45  0.55  0.65  0.75  0.74  0.72  0.71  0.76  0.82  0.87  0.84  0.81  0.78  0.79  0.80  0.81  0.72  0.63  0.54  0.53  0.51
0.50  0.48  0.47  0.45  0.55  0.65  0.75  0.74  0.72  0.71  0.76  0.82  0.87  0.84  0.81  0.78  0.79  0.80  0.81  0.72  0.63  0.54  0.53  0.51
0.50  0.48  0.47  0.45  0.55  0.65  0.75  0.74  0.72  0.71  0.76  0.82  0.87  0.84  0.81  0.78  0.79  0.80  0.81  0.72  0.63  0.54  0.53  0.51
0.50  0.48  0.47  0.45  0.55  0.65  0.75  0.74  0.72  0.71  0.76  0.82  0.87  0.84  0.81  0.78  0.79  0.80  0.81  0.72  0.63  0.54  0.53  0.51
0.50  0.48  0.47  0.45  0.55  0.65  0.75  0.74  0.72  0.71  0.76  0.82  0.87  0.84  0.81  0.78  0.79  0.80  0.81  0.72  0.63  0.54  0.53  0.51
0.50  0.48  0.47  0.45  0.55  0.65  0.75  0.74  0.72  0.71  0.76  0.82  0.87  0.84  0.81  0.78  0.79  0.80  0.81  0.72  0.63  0.54  0.53  0.51
0.50  0.48  0.47  0.45  0.55  0.65  0.75  0.74  0.72  0.71  0.76  0.82  0.87  0.84  0.81  0.78  0.79  0.80  0.81  0.72  0.63  0.54  0.53  0.51
0.50  0.48  0.47  0.45  0.55  0.65  0.75  0.74  0.72  0.71  0.76  0.82  0.87  0.84  0.81  0.78  0.79  0.80  0.81  0.72  0.63  0.54  0.53  0.51
0.50  0.48  0.47  0.45  0.55  0.65  0.75  0.74  0.72  0.71  0.76  0.82  0.87  0.84  0.81  0.78  0.79  0.80  0.81  0.72  0.63  0.54  0.53  0.51
0.50  0.48  0.47  0.45  0.55  0.65  0.75  0.74  0.72  0.71  0.76  0.82  0.87  0.84  0.81  0.78  0.79  0.80  0.81  0.72  0.63  0.54  0.53  0.51
0.50  0.48  0.47  0.45  0.55  0.65  0.75  0.74  0.72  0.71  0.76  0.82  0.87  0.84  0.81  0.78  0.79  0.80  0.81  0.72  0.63  0.54  0.53  0.51
0.50  0.48  0.47  0.45  0.55  0.65  0.75  0.74  0.72  0.71  0.76  0.82  0.87  0.84  0.81  0.78  0.79  0.80  0.81  0.72  0.63  0.54  0.53  0.51
0.50  0.48  0.47  0.45  0.55  0.65  0.75  0.74  0.72  0.71  0.76  0.82  0.87  0.84  0.81  0.78  0.79  0.80  0.81  0.72  0.63  0.54  0.53  0.51
$ ilon ilat of the cell. lon: 8.0, 35.2
6   9
$ sizes of the cell in km
    36.363       41.065       47.772       57.450       52.781       48.863       44.478       48.863       52.781       57.450       47.772       41.065       36.363       41.065       47.772       57.450       52.781       48.863       44.478       48.863       52.781       57.450       47.772       41.065
$ mean alpha: 0.5625
$ mean beta: 0.678221272464
$alpha by ik, ith
0.50  0.50  0.50  0.50  0.58  0.67  0.75  0.67  0.58  0.50  0.50  0.50  0.50  0.50  0.50  0.50  0.58  0.67  0.75  0.67  0.58  0.50  0.50  0.50
0.50  0.50  0.50  0.50  0.58  0.67  0.75  0.67  0.58  0.50  0.50  0.50  0.50  0.50  0.50  0.50  0.58  0.67  0.75  0.67  0.58  0.50  0.50  0.50
0.50  0.50  0.50  0.50  0.58  0.67  0.75  0.67  0.58  0.50  0.50  0.50  0.50  0.50  0.50  0.50  0.58  0.67  0.75  0.67  0.58  0.50  0.50  0.50
0.50  0.50  0.50  0.50  0.58  0.67  0.75  0.67  0.58  0.50  0.50  0.50  0.50  0.50  0.50  0.50  0.58  0.67  0.75  0.67  0.58  0.50  0.50  0.50
0.50  0.50  0.50  0.50  0.58  0.67  0.75  0.67  0.58  0.50  0.50  0.50  0.50  0.50  0.50  0.50  0.58  0.67  0.75  0.67  0.58  0.50  0.50  0.50
0.50  0.50  0.50  0.50  0.58  0.67  0.75  0.67  0.58  0.50  0.50  0.50  0.50  0.50  0.50  0.50  0.58  0.67  0.75  0.67  0.58  0.50  0.50  0.50
0.50  0.50  0.50  0.50  0.58  0.67  0.75  0.67  0.58  0.50  0.50  0.50  0.50  0.50  0.50  0.50  0.58  0.67  0.75  0.67  0.58  0.50  0.50  0.50
0.50  0.50  0.50  0.50  0.58  0.67  0.75  0.67  0.58  0.50  0.50  0.50  0.50  0.50  0.50  0.50  0.58  0.67  0.75  0.67  0.58  0.50  0.50  0.50
0.50  0.50  0.50  0.50  0.58  0.67  0.75  0.67  0.58  0.50  0.50  0.50  0.50  0.50  0.50  0.50  0.58  0.67  0.75  0.67  0.58  0.50  0.50  0.50
0.50  0.50  0.50  0.50  0.58  0.67  0.75  0.67  0.58  0.50  0.50  0.50  0.50  0.50  0.50  0.50  0.58  0.67  0.75  0.67  0.58  0.50  0.50  0.50
0.50  0.50  0.50  0.50  0.58  0.67  0.75  0.67  0.58  0.50  0.50  0.50  0.50  0.50  0.50  0.50  0.58  0.67  0.75  0.67  0.58  0.50  0.50  0.50
0.50  0.50  0.50  0.50  0.58  0.67  0.75  0.67  0.58  0.50  0.50  0.50  0.50  0.50  0.50  0.50  0.58  0.67  0.75  0.67  0.58  0.50  0.50  0.50
0.50  0.50  0.50  0.50  0.58  0.67  0.75  0.67  0.58  0.50  0.50  0.50  0.50  0.50  0.50  0.50  0.58  0.67  0.75  0.67  0.58  0.50  0.50  0.50
0.50  0.50  0.50  0.50  0.58  0.67  0.75  0.67  0.58  0.50  0.50  0.50  0.50  0.50  0.50  0.50  0.58  0.67  0.75  0.67  0.58  0.50  0.50  0.50
0.50  0.50  0.50  0.50  0.58  0.67  0.75  0.67  0.58  0.50  0.50  0.50  0.50  0.50  0.50  0.50  0.58  0.67  0.75  0.67  0.58  0.50  0.50  0.50
0.50  0.50  0.50  0.50  0.58  0.67  0.75  0.67  0.58  0.50  0.50  0.50  0.50  0.50  0.50  0.50  0.58  0.67  0.75  0.67  0.58  0.50  0.50  0.50
0.50  0.50  0.50  0.50  0.58  0.67  0.75  0.67  0.58  0.50  0.50  0.50  0.50  0.50  0.50  0.50  0.58  0.67  0.75  0.67  0.58  0.50  0.50  0.50
0.50  0.50  0.50  0.50  0.58  0.67  0.75  0.67  0.58  0.50  0.50  0.50  0.50  0.50  0.50  0.50  0.58  0.67  0.75  0.67  0.58  0.50  0.50  0.50
0.50  0.50  0.50  0.50  0.58  0.67  0.75  0.67  0.58  0.50  0.50  0.50  0.50  0.50  0.50  0.50  0.58  0.67  0.75  0.67  0.58  0.50  0.50  0.50
0.50  0.50  0.50  0.50  0.58  0.67  0.75  0.67  0.58  0.50  0.50  0.50  0.50  0.50  0.50  0.50  0.58  0.67  0.75  0.67  0.58  0.50  0.50  0.50
0.50  0.50  0.50  0.50  0.58  0.67  0.75  0.67  0.58  0.50  0.50  0.50  0.50  0.50  0.50  0.50  0.58  0.67  0.75  0.67  0.58  0.50  0.50  0.50
0.50  0.50  0.50  0.50  0.58  0.67  0.75  0.67  0.58  0.50  0.50  0.50  0.50  0.50  0.50  0.50  0.58  0.67  0.75  0.67  0.58  0.50  0.50  0.50
0.50  0.50  0.50  0.50  0.58  0.67  0.75  0.67  0.58  0.50  0.50  0.50  0.50  0.50  0.50  0.50  0.58  0.67  0.75  0.67  0.58  0.50  0.50  0.50
0.50  0.50  0.50  0.50  0.58  0.67  0.75  0.67  0.58  0.50  0.50  0.50  0.50  0.50  0.50  0.50  0.58  0.67  0.75  0.67  0.58  0.50  0.50  0.50
0.50  0.50  0.50  0.50  0.58  0.67  0.75  0.67  0.58  0.50  0.50  0.50  0.50  0.50  0.50  0.50  0.58  0.67  0.75  0.67  0.58  0.50  0.50  0.50
$beta by ik, ith
0.50  0.48  0.47  0.45  0.55  0.65  0.75  0.74  0.72  0.71  0.76  0.82  0.88  0.84  0.81  0.78  0.79  0.80  0.81  0.72  0.63  0.54  0.53  0.51
0.50  0.48  0.47  0.45  0.55  0.65  0.75  0.74  0.72  0.71  0.76  0.82  0.88  0.84  0.81  0.78  0.79  0.80  0.81  0.72  0.63  0.54  0.53  0.51
0.50  0.48  0.47  0.45  0.55  0.65  0.75  0.74  0.72  0.71  0.76  0.82  0.88  0.84  0.81  0.78  0.79  0.80  0.81  0.72  0.63  0.54  0.53  0.51
0.50  0.48  0.47  0.45  0.55  0.65  0.75  0.74  0.72  0.71  0.76  0.82  0.88  0.84  0.81  0.78  0.79  0.80  0.81  0.72  0.63  0.54  0.53  0.51
0.50  0.48  0.47  0.45  0.55  0.65  0.75  0.74  0.72  0.71  0.76  0.82  0.88  0.84  0.81  0.78  0.79  0.80  0.81  0.72  0.63  0.54  0.53  0.51
0.50  0.48  0.47  0.45  0.55  0.65  0.75  0.74  0.72  0.71  0.76  0.82  0.88  0.84  0.81  0.78  0.79  0.80  0.81  0.72  0.63  0.54  0.53  0.51
0.50  0.48  0.47  0.45  0.55  0.65  0.75  0.74  0.72  0.71  0.76  0.82  0.88  0.84  0.81  0.78  0.79  0.80  0.81  0.72  0.63  0.54  0.53  0.51
0.50  0.48  0.47  0.45  0.55  0.65  0.75  0.74  0.72  0.71  0.76  0.82  0.88  0.84  0.81  0.78  0.79  0.80  0.81  0.72  0.63  0.54  0.53  0.51
0.50  0.48  0.47  0.45  0.55  0.65  0.75  0.74  0.72  0.71  0.76  0.82  0.88  0.84  0.81  0.78  0.79  0.80  0.81  0.72  0.63  0.54  0.53  0.51
0.50  0.48  0.47  0.45  0.55  0.65  0.75  0.74  0.72  0.71  0.76  0.82  0.88  0.84  0.81  0.78  0.79  0.80  0.81  0.72  0.63  0.54  0.53  0.51
0.50  0.48  0.47  0.45  0.55  0.65  0.75  0.74  0.72  0.71  0.76  0.82  0.88  0.84  0.81  0.78  0.79  0.80  0.81  0.72  0.63  0.54  0.53  0.51
0.50  0.48  0.47  0.45  0.55  0.65  0.75  0.74  0.72  0.71  0.76  0.82  0.88  0.84  0.81  0.78  0.79  0.80  0.81  0.72  0.63  0.54  0.53  0.51
0.50  0.48  0.47  0.45  0.55  0.65  0.75  0.74  0.72  0.71  0.76  0.82  0.88  0.84  0.81  0.78  0.79  0.80  0.81  0.72  0.63  0.54  0.53  0.51
0.50  0.48  0.47  0.45  0.55  0.65  0.75  0.74  0.72  0.71  0.76  0.82  0.88  0.84  0.81  0.78  0.79  0.80  0.81  0.72  0.63  0.54  0.53  0.51
0.50  0.48  0.47  0.45  0.55  0.65  0.75  0.74  0.72  0.71  0.76  0.82  0.88  0.84  0.81  0.78  0.79  0.80  0.81  0.72  0.63  0.54  0.53  0.51
0.50  0.48  0.47  0.45  0.55  0.65  0.75  0.74  0.72  0.71  0.76  0.82  0.88  0.84  0.81  0.78  0.79  0.80  0.81  0.72  0.63  0.54  0.53  0.51
0.50  0.48  0.47  0.45  0.55  0.65  0.75  0.74  0.72  0.71  0.76  0.82  0.88  0.84  0.81  0.78  0.79  0.80  0.81  0.72  0.63  0.54  0.53  0.51
0.50  0.48  0.47  0.45  0.55  0.65  0.75  0.74  0.72  0.71  0.76  0.82  0.88  0.84  0.81  0.78  0.79  0.80  0.81  0.72  0.63  0.54  0.53  0.51
0.50  0.48  0.47  0.45  0.55  0.65  0.75  0.74  0.72  0.71  0.76  0.82  0.88  0.84  0.81  0.78  0.79  0.80  0.81  0.72  0.63  0.54  0.53  0.51
0.50  0.48  0.47  0.45  0.55  0.65  0.75  0.74  0.72  0.71  0.76  0.82  0.88  0.84  0.81  0.78  0.79  0.80  0.81  0.72  0.63  0.54  0.53  0.51
0.50  0.48  0.47  0.45  0.55  0.65  0.75  0.74  0.72  0.71  0.76  0.82  0.88  0.84  0.81  0.78  0.79  0.80  0.81  0.72  0.63  0.54  0.53  0.51
0.50  0.48  0.47  0.45  0.55  0.65  0.75  0.74  0.72  0.71  0.76  0.82  0.88  0.84  0.81  0.78  0.79  0.80  0.81  0.72  0.63  0.54  0.53  0.51
0.50  0.48  0.47  0.45  0.55  0.65  0.75  0.74  0.72  0.71  0.76  0.82  0.88  0.84  0.81  0.78  0.79  0.80  0.81  0.72  0.63  0.54  0.53  0.51
0.50  0.48  0.47  0.45  0.55  0.65  0.75  0.74  0.72  0.71  0.76  0.82  0.88  0.84  0.81  0.78  0.79  0.80  0.81  0.72  0.63  0.54  0.53  0.51
0.50  0.48  0.47  0.45  0.55  0.65  0.75  0.74  0.72  0.71  0.76  0.82  0.88  0.84  0.81  0.78  0.79  0.80  0.81  0.72  0.63  0.54  0.53  0.51
$ ilon ilat of the cell. lon: 8.0, 35.6
6   10
$ sizes of the cell in km
    36.183       40.881       47.614       57.337       52.733       48.852       44.478       48.852       52.733       57.337       47.614       40.881       36.183       40.881       47.614       57.337       52.733       48.852       44.478       48.852       52.733       57.337       47.614       40.881
$ mean alpha: 0.5625
$ mean beta: 0.678221272464
$alpha by ik, ith
0.50  0.50  0.50  0.50  0.58  0.67  0.75  0.67  0.58  0.50  0.50  0.50  0.50  0.50  0.50  0.50  0.58  0.67  0.75  0.67  0.58  0.50  0.50  0.50
0.50  0.50  0.50  0.50  0.58  0.67  0.75  0.67  0.58  0.50  0.50  0.50  0.50  0.50  0.50  0.50  0.58  0.67  0.75  0.67  0.58  0.50  0.50  0.50
0.50  0.50  0.50  0.50  0.58  0.67  0.75  0.67  0.58  0.50  0.50  0.50  0.50  0.50  0.50  0.50  0.58  0.67  0.75  0.67  0.58  0.50  0.50  0.50
0.50  0.50  0.50  0.50  0.58  0.67  0.75  0.67  0.58  0.50  0.50  0.50  0.50  0.50  0.50  0.50  0.58  0.67  0.75  0.67  0.58  0.50  0.50  0.50
0.50  0.50  0.50  0.50  0.58  0.67  0.75  0.67  0.58  0.50  0.50  0.50  0.50  0.50  0.50  0.50  0.58  0.67  0.75  0.67  0.58  0.50  0.50  0.50
0.50  0.50  0.50  0.50  0.58  0.67  0.75  0.67  0.58  0.50  0.50  0.50  0.50  0.50  0.50  0.50  0.58  0.67  0.75  0.67  0.58  0.50  0.50  0.50
0.50  0.50  0.50  0.50  0.58  0.67  0.75  0.67  0.58  0.50  0.50  0.50  0.50  0.50  0.50  0.50  0.58  0.67  0.75  0.67  0.58  0.50  0.50  0.50
0.50  0.50  0.50  0.50  0.58  0.67  0.75  0.67  0.58  0.50  0.50  0.50  0.50  0.50  0.50  0.50  0.58  0.67  0.75  0.67  0.58  0.50  0.50  0.50
0.50  0.50  0.50  0.50  0.58  0.67  0.75  0.67  0.58  0.50  0.50  0.50  0.50  0.50  0.50  0.50  0.58  0.67  0.75  0.67  0.58  0.50  0.50  0.50
0.50  0.50  0.50  0.50  0.58  0.67  0.75  0.67  0.58  0.50  0.50  0.50  0.50  0.50  0.50  0.50  0.58  0.67  0.75  0.67  0.58  0.50  0.50  0.50
0.50  0.50  0.50  0.50  0.58  0.67  0.75  0.67  0.58  0.50  0.50  0.50  0.50  0.50  0.50  0.50  0.58  0.67  0.75  0.67  0.58  0.50  0.50  0.50
0.50  0.50  0.50  0.50  0.58  0.67  0.75  0.67  0.58  0.50  0.50  0.50  0.50  0.50  0.50  0.50  0.58  0.67  0.75  0.67  0.58  0.50  0.50  0.50
0.50  0.50  0.50  0.50  0.58  0.67  0.75  0.67  0.58  0.50  0.50  0.50  0.50  0.50  0.50  0.50  0.58  0.67  0.75  0.67  0.58  0.50  0.50  0.50
0.50  0.50  0.50  0.50  0.58  0.67  0.75  0.67  0.58  0.50  0.50  0.50  0.50  0.50  0.50  0.50  0.58  0.67  0.75  0.67  0.58  0.50  0.50  0.50
0.50  0.50  0.50  0.50  0.58  0.67  0.75  0.67  0.58  0.50  0.50  0.50  0.50  0.50  0.50  0.50  0.58  0.67  0.75  0.67  0.58  0.50  0.50  0.50
0.50  0.50  0.50  0.50  0.58  0.67  0.75  0.67  0.58  0.50  0.50  0.50  0.50  0.50  0.50  0.50  0.58  0.67  0.75  0.67  0.58  0.50  0.50  0.50
0.50  0.50  0.50  0.50  0.58  0.67  0.75  0.67  0.58  0.50  0.50  0.50  0.50  0.50  0.50  0.50  0.58  0.67  0.75  0.67  0.58  0.50  0.50  0.50
0.50  0.50  0.50  0.50  0.58  0.67  0.75  0.67  0.58  0.50  0.50  0.50  0.50  0.50  0.50  0.50  0.58  0.67  0.75  0.67  0.58  0.50  0.50  0.50
0.50  0.50  0.50  0.50  0.58  0.67  0.75  0.67  0.58  0.50  0.50  0.50  0.50  0.50  0.50  0.50  0.58  0.67  0.75  0.67  0.58  0.50  0.50  0.50
0.50  0.50  0.50  0.50  0.58  0.67  0.75  0.67  0.58  0.50  0.50  0.50  0.50  0.50  0.50  0.50  0.58  0.67  0.75  0.67  0.58  0.50  0.50  0.50
0.50  0.50  0.50  0.50  0.58  0.67  0.75  0.67  0.58  0.50  0.50  0.50  0.50  0.50  0.50  0.50  0.58  0.67  0.75  0.67  0.58  0.50  0.50  0.50
0.50  0.50  0.50  0.50  0.58  0.67  0.75  0.67  0.58  0.50  0.50  0.50  0.50  0.50  0.50  0.50  0.58  0.67  0.75  0.67  0.58  0.50  0.50  0.50
0.50  0.50  0.50  0.50  0.58  0.67  0.75  0.67  0.58  0.50  0.50  0.50  0.50  0.50  0.50  0.50  0.58  0.67  0.75  0.67  0.58  0.50  0.50  0.50
0.50  0.50  0.50  0.50  0.58  0.67  0.75  0.67  0.58  0.50  0.50  0.50  0.50  0.50  0.50  0.50  0.58  0.67  0.75  0.67  0.58  0.50  0.50  0.50
0.50  0.50  0.50  0.50  0.58  0.67  0.75  0.67  0.58  0.50  0.50  0.50  0.50  0.50  0.50  0.50  0.58  0.67  0.75  0.67  0.58  0.50  0.50  0.50
$beta by ik, ith
0.50  0.48  0.47  0.45  0.55  0.65  0.75  0.74  0.72  0.71  0.76  0.82  0.87  0.84  0.81  0.78  0.79  0.80  0.81  0.72  0.63  0.54  0.53  0.51
0.50  0.48  0.47  0.45  0.55  0.65  0.75  0.74  0.72  0.71  0.76  0.82  0.87  0.84  0.81  0.78  0.79  0.80  0.81  0.72  0.63  0.54  0.53  0.51
0.50  0.48  0.47  0.45  0.55  0.65  0.75  0.74  0.72  0.71  0.76  0.82  0.87  0.84  0.81  0.78  0.79  0.80  0.81  0.72  0.63  0.54  0.53  0.51
0.50  0.48  0.47  0.45  0.55  0.65  0.75  0.74  0.72  0.71  0.76  0.82  0.87  0.84  0.81  0.78  0.79  0.80  0.81  0.72  0.63  0.54  0.53  0.51
0.50  0.48  0.47  0.45  0.55  0.65  0.75  0.74  0.72  0.71  0.76  0.82  0.87  0.84  0.81  0.78  0.79  0.80  0.81  0.72  0.63  0.54  0.53  0.51
0.50  0.48  0.47  0.45  0.55  0.65  0.75  0.74  0.72  0.71  0.76  0.82  0.87  0.84  0.81  0.78  0.79  0.80  0.81  0.72  0.63  0.54  0.53  0.51
0.50  0.48  0.47  0.45  0.55  0.65  0.75  0.74  0.72  0.71  0.76  0.82  0.87  0.84  0.81  0.78  0.79  0.80  0.81  0.72  0.63  0.54  0.53  0.51
0.50  0.48  0.47  0.45  0.55  0.65  0.75  0.74  0.72  0.71  0.76  0.82  0.87  0.84  0.81  0.78  0.79  0.80  0.81  0.72  0.63  0.54  0.53  0.51
0.50  0.48  0.47  0.45  0.55  0.65  0.75  0.74  0.72  0.71  0.76  0.82  0.87  0.84  0.81  0.78  0.79  0.80  0.81  0.72  0.63  0.54  0.53  0.51
0.50  0.48  0.47  0.45  0.55  0.65  0.75  0.74  0.72  0.71  0.76  0.82  0.87  0.84  0.81  0.78  0.79  0.80  0.81  0.72  0.63  0.54  0.53  0.51
0.50  0.48  0.47  0.45  0.55  0.65  0.75  0.74  0.72  0.71  0.76  0.82  0.87  0.84  0.81  0.78  0.79  0.80  0.81  0.72  0.63  0.54  0.53  0.51
0.50  0.48  0.47  0.45  0.55  0.65  0.75  0.74  0.72  0.71  0.76  0.82  0.87  0.84  0.81  0.78  0.79  0.80  0.81  0.72  0.63  0.54  0.53  0.51
0.50  0.48  0.47  0.45  0.55  0.65  0.75  0.74  0.72  0.71  0.76  0.82  0.87  0.84  0.81  0.78  0.79  0.80  0.81  0.72  0.63  0.54  0.53  0.51
0.50  0.48  0.47  0.45  0.55  0.65  0.75  0.74  0.72  0.71  0.76  0.82  0.87  0.84  0.81  0.78  0.79  0.80  0.81  0.72  0.63  0.54  0.53  0.51
0.50  0.48  0.47  0.45  0.55  0.65  0.75  0.74  0.72  0.71  0.76  0.82  0.87  0.84  0.81  0.78  0.79  0.80  0.81  0.72  0.63  0.54  0.53  0.51
0.50  0.48  0.47  0.45  0.55  0.65  0.75  0.74  0.72  0.71  0.76  0.82  0.87  0.84  0.81  0.78  0.79  0.80  0.81  0.72  0.63  0.54  0.53  0.51
0.50  0.48  0.47  0.45  0.55  0.65  0.75  0.74  0.72  0.71  0.76  0.82  0.87  0.84  0.81  0.78  0.79  0.80  0.81  0.72  0.63  0.54  0.53  0.51
0.50  0.48  0.47  0.45  0.55  0.65  0.75  0.74  0.72  0.71  0.76  0.82  0.87  0.84  0.81  0.78  0.79  0.80  0.81  0.72  0.63  0.54  0.53  0.51
0.50  0.48  0.47  0.45  0.55  0.65  0.75  0.74  0.72  0.71  0.76  0.82  0.87  0.84  0.81  0.78  0.79  0.80  0.81  0.72  0.63  0.54  0.53  0.51
0.50  0.48  0.47  0.45  0.55  0.65  0.75  0.74  0.72  0.71  0.76  0.82  0.87  0.84  0.81  0.78  0.79  0.80  0.81  0.72  0.63  0.54  0.53  0.51
0.50  0.48  0.47  0.45  0.55  0.65  0.75  0.74  0.72  0.71  0.76  0.82  0.87  0.84  0.81  0.78  0.79  0.80  0.81  0.72  0.63  0.54  0.53  0.51
0.50  0.48  0.47  0.45  0.55  0.65  0.75  0.74  0.72  0.71  0.76  0.82  0.87  0.84  0.81  0.78  0.79  0.80  0.81  0.72  0.63  0.54  0.53  0.51
0.50  0.48  0.47  0.45  0.55  0.65  0.75  0.74  0.72  0.71  0.76  0.82  0.87  0.84  0.81  0.78  0.79  0.80  0.81  0.72  0.63  0.54  0.53  0.51
0.50  0.48  0.47  0.45  0.55  0.65  0.75  0.74  0.72  0.71  0.76  0.82  0.87  0.84  0.81  0.78  0.79  0.80  0.81  0.72  0.63  0.54  0.53  0.51
0.50  0.48  0.47  0.45  0.55  0.65  0.75  0.74  0.72  0.71  0.76  0.82  0.87  0.84  0.81  0.78  0.79  0.80  0.81  0.72  0.63  0.54  0.53  0.51
$ ilon ilat of the cell. lon: 8.0, 36.0
6   11
$ sizes of the cell in km
    36.002       40.696       47.456       57.222       52.686       48.840       44.478       48.840       52.686       57.222       47.456       40.696       36.002       40.696       47.456       57.222       52.686       48.840       44.478       48.840       52.686       57.222       47.456       40.696
$ mean alpha: 0.5625
$ mean beta: 0.678221272464
$alpha by ik, ith
0.50  0.50  0.50  0.50  0.58  0.67  0.75  0.67  0.58  0.50  0.50  0.50  0.50  0.50  0.50  0.50  0.58  0.67  0.75  0.67  0.58  0.50  0.50  0.50
0.50  0.50  0.50  0.50  0.58  0.67  0.75  0.67  0.58  0.50  0.50  0.50  0.50  0.50  0.50  0.50  0.58  0.67  0.75  0.67  0.58  0.50  0.50  0.50
0.50  0.50  0.50  0.50  0.58  0.67  0.75  0.67  0.58  0.50  0.50  0.50  0.50  0.50  0.50  0.50  0.58  0.67  0.75  0.67  0.58  0.50  0.50  0.50
0.50  0.50  0.50  0.50  0.58  0.67  0.75  0.67  0.58  0.50  0.50  0.50  0.50  0.50  0.50  0.50  0.58  0.67  0.75  0.67  0.58  0.50  0.50  0.50
0.50  0.50  0.50  0.50  0.58  0.67  0.75  0.67  0.58  0.50  0.50  0.50  0.50  0.50  0.50  0.50  0.58  0.67  0.75  0.67  0.58  0.50  0.50  0.50
0.50  0.50  0.50  0.50  0.58  0.67  0.75  0.67  0.58  0.50  0.50  0.50  0.50  0.50  0.50  0.50  0.58  0.67  0.75  0.67  0.58  0.50  0.50  0.50
0.50  0.50  0.50  0.50  0.58  0.67  0.75  0.67  0.58  0.50  0.50  0.50  0.50  0.50  0.50  0.50  0.58  0.67  0.75  0.67  0.58  0.50  0.50  0.50
0.50  0.50  0.50  0.50  0.58  0.67  0.75  0.67  0.58  0.50  0.50  0.50  0.50  0.50  0.50  0.50  0.58  0.67  0.75  0.67  0.58  0.50  0.50  0.50
0.50  0.50  0.50  0.50  0.58  0.67  0.75  0.67  0.58  0.50  0.50  0.50  0.50  0.50  0.50  0.50  0.58  0.67  0.75  0.67  0.58  0.50  0.50  0.50
0.50  0.50  0.50  0.50  0.58  0.67  0.75  0.67  0.58  0.50  0.50  0.50  0.50  0.50  0.50  0.50  0.58  0.67  0.75  0.67  0.58  0.50  0.50  0.50
0.50  0.50  0.50  0.50  0.58  0.67  0.75  0.67  0.58  0.50  0.50  0.50  0.50  0.50  0.50  0.50  0.58  0.67  0.75  0.67  0.58  0.50  0.50  0.50
0.50  0.50  0.50  0.50  0.58  0.67  0.75  0.67  0.58  0.50  0.50  0.50  0.50  0.50  0.50  0.50  0.58  0.67  0.75  0.67  0.58  0.50  0.50  0.50
0.50  0.50  0.50  0.50  0.58  0.67  0.75  0.67  0.58  0.50  0.50  0.50  0.50  0.50  0.50  0.50  0.58  0.67  0.75  0.67  0.58  0.50  0.50  0.50
0.50  0.50  0.50  0.50  0.58  0.67  0.75  0.67  0.58  0.50  0.50  0.50  0.50  0.50  0.50  0.50  0.58  0.67  0.75  0.67  0.58  0.50  0.50  0.50
0.50  0.50  0.50  0.50  0.58  0.67  0.75  0.67  0.58  0.50  0.50  0.50  0.50  0.50  0.50  0.50  0.58  0.67  0.75  0.67  0.58  0.50  0.50  0.50
0.50  0.50  0.50  0.50  0.58  0.67  0.75  0.67  0.58  0.50  0.50  0.50  0.50  0.50  0.50  0.50  0.58  0.67  0.75  0.67  0.58  0.50  0.50  0.50
0.50  0.50  0.50  0.50  0.58  0.67  0.75  0.67  0.58  0.50  0.50  0.50  0.50  0.50  0.50  0.50  0.58  0.67  0.75  0.67  0.58  0.50  0.50  0.50
0.50  0.50  0.50  0.50  0.58  0.67  0.75  0.67  0.58  0.50  0.50  0.50  0.50  0.50  0.50  0.50  0.58  0.67  0.75  0.67  0.58  0.50  0.50  0.50
0.50  0.50  0.50  0.50  0.58  0.67  0.75  0.67  0.58  0.50  0.50  0.50  0.50  0.50  0.50  0.50  0.58  0.67  0.75  0.67  0.58  0.50  0.50  0.50
0.50  0.50  0.50  0.50  0.58  0.67  0.75  0.67  0.58  0.50  0.50  0.50  0.50  0.50  0.50  0.50  0.58  0.67  0.75  0.67  0.58  0.50  0.50  0.50
0.50  0.50  0.50  0.50  0.58  0.67  0.75  0.67  0.58  0.50  0.50  0.50  0.50  0.50  0.50  0.50  0.58  0.67  0.75  0.67  0.58  0.50  0.50  0.50
0.50  0.50  0.50  0.50  0.58  0.67  0.75  0.67  0.58  0.50  0.50  0.50  0.50  0.50  0.50  0.50  0.58  0.67  0.75  0.67  0.58  0.50  0.50  0.50
0.50  0.50  0.50  0.50  0.58  0.67  0.75  0.67  0.58  0.50  0.50  0.50  0.50  0.50  0.50  0.50  0.58  0.67  0.75  0.67  0.58  0.50  0.50  0.50
0.50  0.50  0.50  0.50  0.58  0.67  0.75  0.67  0.58  0.50  0.50  0.50  0.50  0.50  0.50  0.50  0.58  0.67  0.75  0.67  0.58  0.50  0.50  0.50
0.50  0.50  0.50  0.50  0.58  0.67  0.75  0.67  0.58  0.50  0.50  0.50  0.50  0.50  0.50  0.50  0.58  0.67  0.75  0.67  0.58  0.50  0.50  0.50
$beta by ik, ith
0.50  0.48  0.47  0.45  0.55  0.65  0.75  0.74  0.72  0.71  0.76  0.82  0.87  0.84  0.81  0.78  0.79  0.80  0.81  0.72  0.63  0.54  0.53  0.51
0.50  0.48  0.47  0.45  0.55  0.65  0.75  0.74  0.72  0.71  0.76  0.82  0.87  0.84  0.81  0.78  0.79  0.80  0.81  0.72  0.63  0.54  0.53  0.51
0.50  0.48  0.47  0.45  0.55  0.65  0.75  0.74  0.72  0.71  0.76  0.82  0.87  0.84  0.81  0.78  0.79  0.80  0.81  0.72  0.63  0.54  0.53  0.51
0.50  0.48  0.47  0.45  0.55  0.65  0.75  0.74  0.72  0.71  0.76  0.82  0.87  0.84  0.81  0.78  0.79  0.80  0.81  0.72  0.63  0.54  0.53  0.51
0.50  0.48  0.47  0.45  0.55  0.65  0.75  0.74  0.72  0.71  0.76  0.82  0.87  0.84  0.81  0.78  0.79  0.80  0.81  0.72  0.63  0.54  0.53  0.51
0.50  0.48  0.47  0.45  0.55  0.65  0.75  0.74  0.72  0.71  0.76  0.82  0.87  0.84  0.81  0.78  0.79  0.80  0.81  0.72  0.63  0.54  0.53  0.51
0.50  0.48  0.47  0.45  0.55  0.65  0.75  0.74  0.72  0.71  0.76  0.82  0.87  0.84  0.81  0.78  0.79  0.80  0.81  0.72  0.63  0.54  0.53  0.51
0.50  0.48  0.47  0.45  0.55  0.65  0.75  0.74  0.72  0.71  0.76  0.82  0.87  0.84  0.81  0.78  0.79  0.80  0.81  0.72  0.63  0.54  0.53  0.51
0.50  0.48  0.47  0.45  0.55  0.65  0.75  0.74  0.72  0.71  0.76  0.82  0.87  0.84  0.81  0.78  0.79  0.80  0.81  0.72  0.63  0.54  0.53  0.51
0.50  0.48  0.47  0.45  0.55  0.65  0.75  0.74  0.72  0.71  0.76  0.82  0.87  0.84  0.81  0.78  0.79  0.80  0.81  0.72  0.63  0.54  0.53  0.51
0.50  0.48  0.47  0.45  0.55  0.65  0.75  0.74  0.72  0.71  0.76  0.82  0.87  0.84  0.81  0.78  0.79  0.80  0.81  0.72  0.63  0.54  0.53  0.51
0.50  0.48  0.47  0.45  0.55  0.65  0.75  0.74  0.72  0.71  0.76  0.82  0.87  0.84  0.81  0.78  0.79  0.80  0.81  0.72  0.63  0.54  0.53  0.51
0.50  0.48  0.47  0.45  0.55  0.65  0.75  0.74  0.72  0.71  0.76  0.82  0.87  0.84  0.81  0.78  0.79  0.80  0.81  0.72  0.63  0.54  0.53  0.51
0.50  0.48  0.47  0.45  0.55  0.65  0.75  0.74  0.72  0.71  0.76  0.82  0.87  0.84  0.81  0.78  0.79  0.80  0.81  0.72  0.63  0.54  0.53  0.51
0.50  0.48  0.47  0.45  0.55  0.65  0.75  0.74  0.72  0.71  0.76  0.82  0.87  0.84  0.81  0.78  0.79  0.80  0.81  0.72  0.63  0.54  0.53  0.51
0.50  0.48  0.47  0.45  0.55  0.65  0.75  0.74  0.72  0.71  0.76  0.82  0.87  0.84  0.81  0.78  0.79  0.80  0.81  0.72  0.63  0.54  0.53  0.51
0.50  0.48  0.47  0.45  0.55  0.65  0.75  0.74  0.72  0.71  0.76  0.82  0.87  0.84  0.81  0.78  0.79  0.80  0.81  0.72  0.63  0.54  0.53  0.51
0.50  0.48  0.47  0.45  0.55  0.65  0.75  0.74  0.72  0.71  0.76  0.82  0.87  0.84  0.81  0.78  0.79  0.80  0.81  0.72  0.63  0.54  0.53  0.51
0.50  0.48  0.47  0.45  0.55  0.65  0.75  0.74  0.72  0.71  0.76  0.82  0.87  0.84  0.81  0.78  0.79  0.80  0.81  0.72  0.63  0.54  0.53  0.51
0.50  0.48  0.47  0.45  0.55  0.65  0.75  0.74  0.72  0.71  0.76  0.82  0.87  0.84  0.81  0.78  0.79  0.80  0.81  0.72  0.63  0.54  0.53  0.51
0.50  0.48  0.47  0.45  0.55  0.65  0.75  0.74  0.72  0.71  0.76  0.82  0.87  0.84  0.81  0.78  0.79  0.80  0.81  0.72  0.63  0.54  0.53  0.51
0.50  0.48  0.47  0.45  0.55  0.65  0.75  0.74  0.72  0.71  0.76  0.82  0.87  0.84  0.81  0.78  0.79  0.80  0.81  0.72  0.63  0.54  0.53  0.51
0.50  0.48  0.47  0.45  0.55  0.65  0.75  0.74  0.72  0.71  0.76  0.82  0.87  0.84  0.81  0.78  0.79  0.80  0.81  0.72  0.63  0.54  0.53  0.51
0.50  0.48  0.47  0.45  0.55  0.65  0.75  0.74  0.72  0.71  0.76  0.82  0.87  0.84  0.81  0.78  0.79  0.80  0.81  0.72  0.63  0.54  0.53  0.51
0.50  0.48  0.47  0.45  0.55  0.65  0.75  0.74  0.72  0.71  0.76  0.82  0.87  0.84  0.81  0.78  0.79  0.80  0.81  0.72  0.63  0.54  0.53  0.51
$ ilon ilat of the cell. lon: 8.0, 36.4
6   12
$ sizes of the cell in km
    35.818       40.510       47.296       57.107       52.638       48.829       44.478       48.829       52.638       57.107       47.296       40.510       35.818       40.510       47.296       57.107       52.638       48.829       44.478       48.829       52.638       57.107       47.296       40.510
$ mean alpha: 0.5625
$ mean beta: 0.678221272464
$alpha by ik, ith
0.50  0.50  0.50  0.50  0.58  0.67  0.75  0.67  0.58  0.50  0.50  0.50  0.50  0.50  0.50  0.50  0.58  0.67  0.75  0.67  0.58  0.50  0.50  0.50
0.50  0.50  0.50  0.50  0.58  0.67  0.75  0.67  0.58  0.50  0.50  0.50  0.50  0.50  0.50  0.50  0.58  0.67  0.75  0.67  0.58  0.50  0.50  0.50
0.50  0.50  0.50  0.50  0.58  0.67  0.75  0.67  0.58  0.50  0.50  0.50  0.50  0.50  0.50  0.50  0.58  0.67  0.75  0.67  0.58  0.50  0.50  0.50
0.50  0.50  0.50  0.50  0.58  0.67  0.75  0.67  0.58  0.50  0.50  0.50  0.50  0.50  0.50  0.50  0.58  0.67  0.75  0.67  0.58  0.50  0.50  0.50
0.50  0.50  0.50  0.50  0.58  0.67  0.75  0.67  0.58  0.50  0.50  0.50  0.50  0.50  0.50  0.50  0.58  0.67  0.75  0.67  0.58  0.50  0.50  0.50
0.50  0.50  0.50  0.50  0.58  0.67  0.75  0.67  0.58  0.50  0.50  0.50  0.50  0.50  0.50  0.50  0.58  0.67  0.75  0.67  0.58  0.50  0.50  0.50
0.50  0.50  0.50  0.50  0.58  0.67  0.75  0.67  0.58  0.50  0.50  0.50  0.50  0.50  0.50  0.50  0.58  0.67  0.75  0.67  0.58  0.50  0.50  0.50
0.50  0.50  0.50  0.50  0.58  0.67  0.75  0.67  0.58  0.50  0.50  0.50  0.50  0.50  0.50  0.50  0.58  0.67  0.75  0.67  0.58  0.50  0.50  0.50
0.50  0.50  0.50  0.50  0.58  0.67  0.75  0.67  0.58  0.50  0.50  0.50  0.50  0.50  0.50  0.50  0.58  0.67  0.75  0.67  0.58  0.50  0.50  0.50
0.50  0.50  0.50  0.50  0.58  0.67  0.75  0.67  0.58  0.50  0.50  0.50  0.50  0.50  0.50  0.50  0.58  0.67  0.75  0.67  0.58  0.50  0.50  0.50
0.50  0.50  0.50  0.50  0.58  0.67  0.75  0.67  0.58  0.50  0.50  0.50  0.50  0.50  0.50  0.50  0.58  0.67  0.75  0.67  0.58  0.50  0.50  0.50
0.50  0.50  0.50  0.50  0.58  0.67  0.75  0.67  0.58  0.50  0.50  0.50  0.50  0.50  0.50  0.50  0.58  0.67  0.75  0.67  0.58  0.50  0.50  0.50
0.50  0.50  0.50  0.50  0.58  0.67  0.75  0.67  0.58  0.50  0.50  0.50  0.50  0.50  0.50  0.50  0.58  0.67  0.75  0.67  0.58  0.50  0.50  0.50
0.50  0.50  0.50  0.50  0.58  0.67  0.75  0.67  0.58  0.50  0.50  0.50  0.50  0.50  0.50  0.50  0.58  0.67  0.75  0.67  0.58  0.50  0.50  0.50
0.50  0.50  0.50  0.50  0.58  0.67  0.75  0.67  0.58  0.50  0.50  0.50  0.50  0.50  0.50  0.50  0.58  0.67  0.75  0.67  0.58  0.50  0.50  0.50
0.50  0.50  0.50  0.50  0.58  0.67  0.75  0.67  0.58  0.50  0.50  0.50  0.50  0.50  0.50  0.50  0.58  0.67  0.75  0.67  0.58  0.50  0.50  0.50
0.50  0.50  0.50  0.50  0.58  0.67  0.75  0.67  0.58  0.50  0.50  0.50  0.50  0.50  0.50  0.50  0.58  0.67  0.75  0.67  0.58  0.50  0.50  0.50
0.50  0.50  0.50  0.50  0.58  0.67  0.75  0.67  0.58  0.50  0.50  0.50  0.50  0.50  0.50  0.50  0.58  0.67  0.75  0.67  0.58  0.50  0.50  0.50
0.50  0.50  0.50  0.50  0.58  0.67  0.75  0.67  0.58  0.50  0.50  0.50  0.50  0.50  0.50  0.50  0.58  0.67  0.75  0.67  0.58  0.50  0.50  0.50
0.50  0.50  0.50  0.50  0.58  0.67  0.75  0.67  0.58  0.50  0.50  0.50  0.50  0.50  0.50  0.50  0.58  0.67  0.75  0.67  0.58  0.50  0.50  0.50
0.50  0.50  0.50  0.50  0.58  0.67  0.75  0.67  0.58  0.50  0.50  0.50  0.50  0.50  0.50  0.50  0.58  0.67  0.75  0.67  0.58  0.50  0.50  0.50
0.50  0.50  0.50  0.50  0.58  0.67  0.75  0.67  0.58  0.50  0.50  0.50  0.50  0.50  0.50  0.50  0.58  0.67  0.75  0.67  0.58  0.50  0.50  0.50
0.50  0.50  0.50  0.50  0.58  0.67  0.75  0.67  0.58  0.50  0.50  0.50  0.50  0.50  0.50  0.50  0.58  0.67  0.75  0.67  0.58  0.50  0.50  0.50
0.50  0.50  0.50  0.50  0.58  0.67  0.75  0.67  0.58  0.50  0.50  0.50  0.50  0.50  0.50  0.50  0.58  0.67  0.75  0.67  0.58  0.50  0.50  0.50
0.50  0.50  0.50  0.50  0.58  0.67  0.75  0.67  0.58  0.50  0.50  0.50  0.50  0.50  0.50  0.50  0.58  0.67  0.75  0.67  0.58  0.50  0.50  0.50
$beta by ik, ith
0.50  0.48  0.47  0.45  0.55  0.65  0.75  0.74  0.72  0.71  0.76  0.82  0.88  0.84  0.81  0.78  0.79  0.80  0.81  0.72  0.63  0.54  0.53  0.51
0.50  0.48  0.47  0.45  0.55  0.65  0.75  0.74  0.72  0.71  0.76  0.82  0.88  0.84  0.81  0.78  0.79  0.80  0.81  0.72  0.63  0.54  0.53  0.51
0.50  0.48  0.47  0.45  0.55  0.65  0.75  0.74  0.72  0.71  0.76  0.82  0.88  0.84  0.81  0.78  0.79  0.80  0.81  0.72  0.63  0.54  0.53  0.51
0.50  0.48  0.47  0.45  0.55  0.65  0.75  0.74  0.72  0.71  0.76  0.82  0.88  0.84  0.81  0.78  0.79  0.80  0.81  0.72  0.63  0.54  0.53  0.51
0.50  0.48  0.47  0.45  0.55  0.65  0.75  0.74  0.72  0.71  0.76  0.82  0.88  0.84  0.81  0.78  0.79  0.80  0.81  0.72  0.63  0.54  0.53  0.51
0.50  0.48  0.47  0.45  0.55  0.65  0.75  0.74  0.72  0.71  0.76  0.82  0.88  0.84  0.81  0.78  0.79  0.80  0.81  0.72  0.63  0.54  0.53  0.51
0.50  0.48  0.47  0.45  0.55  0.65  0.75  0.74  0.72  0.71  0.76  0.82  0.88  0.84  0.81  0.78  0.79  0.80  0.81  0.72  0.63  0.54  0.53  0.51
0.50  0.48  0.47  0.45  0.55  0.65  0.75  0.74  0.72  0.71  0.76  0.82  0.88  0.84  0.81  0.78  0.79  0.80  0.81  0.72  0.63  0.54  0.53  0.51
0.50  0.48  0.47  0.45  0.55  0.65  0.75  0.74  0.72  0.71  0.76  0.82  0.88  0.84  0.81  0.78  0.79  0.80  0.81  0.72  0.63  0.54  0.53  0.51
0.50  0.48  0.47  0.45  0.55  0.65  0.75  0.74  0.72  0.71  0.76  0.82  0.88  0.84  0.81  0.78  0.79  0.80  0.81  0.72  0.63  0.54  0.53  0.51
0.50  0.48  0.47  0.45  0.55  0.65  0.75  0.74  0.72  0.71  0.76  0.82  0.88  0.84  0.81  0.78  0.79  0.80  0.81  0.72  0.63  0.54  0.53  0.51
0.50  0.48  0.47  0.45  0.55  0.65  0.75  0.74  0.72  0.71  0.76  0.82  0.88  0.84  0.81  0.78  0.79  0.80  0.81  0.72  0.63  0.54  0.53  0.51
0.50  0.48  0.47  0.45  0.55  0.65  0.75  0.74  0.72  0.71  0.76  0.82  0.88  0.84  0.81  0.78  0.79  0.80  0.81  0.72  0.63  0.54  0.53  0.51
0.50  0.48  0.47  0.45  0.55  0.65  0.75  0.74  0.72  0.71  0.76  0.82  0.88  0.84  0.81  0.78  0.79  0.80  0.81  0.72  0.63  0.54  0.53  0.51
0.50  0.48  0.47  0.45  0.55  0.65  0.75  0.74  0.72  0.71  0.76  0.82  0.88  0.84  0.81  0.78  0.79  0.80  0.81  0.72  0.63  0.54  0.53  0.51
0.50  0.48  0.47  0.45  0.55  0.65  0.75  0.74  0.72  0.71  0.76  0.82  0.88  0.84  0.81  0.78  0.79  0.80  0.81  0.72  0.63  0.54  0.53  0.51
0.50  0.48  0.47  0.45  0.55  0.65  0.75  0.74  0.72  0.71  0.76  0.82  0.88  0.84  0.81  0.78  0.79  0.80  0.81  0.72  0.63  0.54  0.53  0.51
0.50  0.48  0.47  0.45  0.55  0.65  0.75  0.74  0.72  0.71  0.76  0.82  0.88  0.84  0.81  0.78  0.79  0.80  0.81  0.72  0.63  0.54  0.53  0.51
0.50  0.48  0.47  0.45  0.55  0.65  0.75  0.74  0.72  0.71  0.76  0.82  0.88  0.84  0.81  0.78  0.79  0.80  0.81  0.72  0.63  0.54  0.53  0.51
0.50  0.48  0.47  0.45  0.55  0.65  0.75  0.74  0.72  0.71  0.76  0.82  0.88  0.84  0.81  0.78  0.79  0.80  0.81  0.72  0.63  0.54  0.53  0.51
0.50  0.48  0.47  0.45  0.55  0.65  0.75  0.74  0.72  0.71  0.76  0.82  0.88  0.84  0.81  0.78  0.79  0.80  0.81  0.72  0.63  0.54  0.53  0.51
0.50  0.48  0.47  0.45  0.55  0.65  0.75  0.74  0.72  0.71  0.76  0.82  0.88  0.84  0.81  0.78  0.79  0.80  0.81  0.72  0.63  0.54  0.53  0.51
0.50  0.48  0.47  0.45  0.55  0.65  0.75  0.74  0.72  0.71  0.76  0.82  0.88  0.84  0.81  0.78  0.79  0.80  0.81  0.72  0.63  0.54  0.53  0.51
0.50  0.48  0.47  0.45  0.55  0.65  0.75  0.74  0.72  0.71  0.76  0.82  0.88  0.84  0.81  0.78  0.79  0.80  0.81  0.72  0.63  0.54  0.53  0.51
0.50  0.48  0.47  0.45  0.55  0.65  0.75  0.74  0.72  0.71  0.76  0.82  0.88  0.84  0.81  0.78  0.79  0.80  0.81  0.72  0.63  0.54  0.53  0.51
