$ WAVEWATCH III multi-scale input file
$ ------------------------------------
  2 1 F 1 F T
$
  'wind' F F T F F F F
$
  'large'  'no' 'no' 'wind' 'no' 'no' 'no' 'no'  1  1  0.00 1.00  F
  'nest'   'no' 'no' 'wind' 'no' 'no' 'no' 'no'  2  1  0.00 1.00  F
$
   20000101 000000   20000103 000000
$
     T F
$
   20000101 000000   3600   20000103 000000
$
  N
  HS FP DP DIR SPR
$
   19680606 000000      0  19680608 000000
   19680606 000000      0  19680608 000000
   19680606 011200      0  19680606 011200
   19680606 000000      0  19680608 000000
   19680606 000000      0  19680608 000000
$
  'large'  2
   20000101 000000   3600   20000103 000000
      10       34     'center'
      11       33     'pt2'
       0.E3     0.E3  'STOPSTRING'
$
  'nest'  2
   20000101 000000   3600   20000103 000000
      10       34     'center'
       9       34     'pt2'
       0.E3     0.E3  'STOPSTRING'
$
  'the_end'  0
$
  'STP'
$
$ End of input file
