$ --------------------------------------------------------------------
$
$ WAVEWATCH III Grid output post-processing ( NETCDF )
$
$ --------------------------------------------------------------------
$
$ Time, time increment and number of outputs.
$
  20000101 000000  3600  1000000
$
$ Request flags identifying fields as in ww3_shel input and
$ section 2.4 of the manual.
$
  N
  HS WND DPT DIR
$
$ Output type 4 [3,4] (version netCDF)
$ and variable type 4 [2 = SHORT, 3 = it depends , 4 = REAL]
$ Output type 0 1 2 [0,1,2,3,4,5] (swell partition)
$ variables T [T] or not [F] in the same file
$
4 4
0 1 2
T
$
$
$ -------------------------------------------------------------------- $
$ File prefix
$ number of characters in date
$ IX, IY range
ww3.
6
0 2000000 0 2000000
$ --------------------------------------------------------------------
$
$ End of input file
$
$ --------------------------------------------------------------------

