! -------------------------------------------------------------------- !
! WAVEWATCH III ww3_multi.nml - multi-grid model                       !
! -------------------------------------------------------------------- !


! -------------------------------------------------------------------- !
! Define top-level model parameters via DOMAIN_NML namelist
! -------------------------------------------------------------------- !
&DOMAIN_NML
  DOMAIN%NRINP  = 1
  DOMAIN%NRGRD	= 2
  DOMAIN%PSHARE = T
  DOMAIN%FLGHG1 = T
  DOMAIN%START  = '20000101 000000'
  DOMAIN%STOP   = '20000103 000000'
/

! -------------------------------------------------------------------- !
! Define each input grid via the INPUT_GRID_NML namelist
! -------------------------------------------------------------------- !
&INPUT_GRID_NML
  INPUT(1)%NAME                  = 'wind'
  INPUT(1)%FORCING%WINDS         = T
/

! -------------------------------------------------------------------- !
! Define each model grid via the MODEL_GRID_NML namelist
! -------------------------------------------------------------------- !
&MODEL_GRID_NML
  MODEL(1)%NAME                  = 'large'
  MODEL(1)%FORCING%WINDS         = 'wind'
  MODEL(2)%NAME                  = 'nest'
  MODEL(2)%FORCING%WINDS         = 'wind'
/

! -------------------------------------------------------------------- !
! Define the output types point parameters via OUTPUT_TYPE_NML namelist
! -------------------------------------------------------------------- !
&OUTPUT_TYPE_NML
  ALLTYPE%FIELD%LIST       = 'HS FP DP DIR SPR'
  ITYPE(1)%POINT%FILE      = '../input_rg_multi/points_1.list'
  ITYPE(2)%POINT%FILE      = '../input_rg_multi/points_2.list'
/

! -------------------------------------------------------------------- !
! Define output dates via OUTPUT_DATE_NML namelist
! -------------------------------------------------------------------- !
&OUTPUT_DATE_NML
  ALLDATE%FIELD          = '20000101 000000' '3600' '20000103 000000'
  IDATE(1)%POINT         = '20000101 000000' '3600' '20000103 000000'
  IDATE(2)%POINT         = '20000101 000000' '3600' '20000103 000000'
/

! -------------------------------------------------------------------- !
! Define homogeneous input via HOMOG_COUNT_NML and HOMOG_INPUT_NML namelist
! -------------------------------------------------------------------- !
&HOMOG_COUNT_NML
/

&HOMOG_INPUT_NML
/

! -------------------------------------------------------------------- !
! WAVEWATCH III - end of namelist                                      !
! -------------------------------------------------------------------- !
