! -------------------------------------------------------------------- !
! WAVEWATCH III - ww3_grid.nml - Grid pre-processing                   !
! -------------------------------------------------------------------- !

! -------------------------------------------------------------------- !
! Define the spectrum parameterization via SPECTRUM_NML namelist
! -------------------------------------------------------------------- !
&SPECTRUM_NML
  SPECTRUM%XFR       =  1.1
  SPECTRUM%FREQ1     =  0.0373
  SPECTRUM%NK        =  32
  SPECTRUM%NTH       =  24
/

! -------------------------------------------------------------------- !
! Define the run parameterization via RUN_NML namelist
! -------------------------------------------------------------------- !
&RUN_NML
  RUN%FLCX         =  T
  RUN%FLCY         =  T
  RUN%FLCTH        =  T
  RUN%FLCK         =  T
  RUN%FLSOU        =  T
/

! -------------------------------------------------------------------- !
! Define the timesteps parameterization via TIMESTEPS_NML namelist
! -------------------------------------------------------------------- !
&TIMESTEPS_NML
  TIMESTEPS%DTMAX        =  600.
  TIMESTEPS%DTXY         =  200.
  TIMESTEPS%DTKTH        =  200.
  TIMESTEPS%DTMIN        =  10.
/

! -------------------------------------------------------------------- !
! Define the grid to preprocess via GRID_NML namelist
! -------------------------------------------------------------------- !
&GRID_NML
  GRID%NAME         =  'REF-UG'
  GRID%NML          =  '../input/namelists_REF-UG.nml'
  GRID%TYPE         =  'UNST'
  GRID%COORD        =  'SPHE'
  GRID%CLOS         =  'F'
  GRID%ZLIM         =  4.0
  GRID%DMIN         =  0.30
/

! -------------------------------------------------------------------- !
! Define the unstructured grid type via UNST_NML namelist
! -------------------------------------------------------------------- !
&UNST_NML
  UNST%SF          =  -1.
  UNST%FILENAME    =  './../input/ref1.msh'
  UNST%IDLA      =  4
  UNST%FORMAT    =  '(20f10.2)'
  UNST%UGOBCFILE   =  '../input/ref1.mshb'
/

! -------------------------------------------------------------------- !
! Define the input boundary points via INBND_COUNT_NML and
!                                      INBND_POINT_NML namelist
! -------------------------------------------------------------------- !
&INBND_COUNT_NML
  INBND_COUNT%N_POINT    =  19
/

&INBND_POINT_NML
  INBND_POINT(1)         =  1 1 F
  INBND_POINT(2)         =  19 1 T
  INBND_POINT(3)         =  70 1 F
  INBND_POINT(4)         =  53 1 F
  INBND_POINT(5)         =  107 1 F
  INBND_POINT(6)         =  62 1 F
  INBND_POINT(7)         =  41 1 F
  INBND_POINT(8)         =  110 1 F
  INBND_POINT(9)         =  90 1 F
  INBND_POINT(10)         =  88 1 F
  INBND_POINT(11)         =  86 1 F
  INBND_POINT(12)         =  87 1 F
  INBND_POINT(13)         =  79 1 F
  INBND_POINT(14)         =  109 1 F
  INBND_POINT(15)         =  100 1 F
  INBND_POINT(16)         =  101 1 F
  INBND_POINT(17)         =  105 1 F
  INBND_POINT(18)         =  50 1 F
  INBND_POINT(19)         =  42 1 F
/

! -------------------------------------------------------------------- !
! WAVEWATCH III - end of namelist                                      !
! -------------------------------------------------------------------- !
