! -------------------------------------------------------------------- !
! WAVEWATCH III ww3_ounf.nml - Grid output post-processing             !
! -------------------------------------------------------------------- !

! -------------------------------------------------------------------- !
! Define the output fields to postprocess via FIELD_NML namelist
! -------------------------------------------------------------------- !
&FIELD_NML
  FIELD%TIMESTART        =  '20030101 000000'
  FIELD%TIMESTRIDE       =  '3600.'
  FIELD%TIMECOUNT        =  '100'
  FIELD%LIST             =  'HS T02 T01 ABR UBR'
  FIELD%PARTITION        =  '0 1 2'
  FIELD%TYPE             =  4
  FIELD %  SAMEFILE   = F 
/

! -------------------------------------------------------------------- !
! Define the content of the output file via FILE_NML namelist
! -------------------------------------------------------------------- !
&FILE_NML
  FILE%IXN           = 1000
  FILE%IYN           = 1
/

! -------------------------------------------------------------------- !
! WAVEWATCH III - end of namelist                                      !
! -------------------------------------------------------------------- !
