$ WAVEWATCH III shell input file
$ ------------------------------
   F T
   F T
   F T
   F
   F
   F
   F
$
   19680606 000000
   19680611 000000
$
   0
$
   19680606 000000  86400  19680611 000000
     F F F F F   T F F F F  F T F F F  F F F F F  F F F F F  F F F F F  F
   19680606 000000      0  19680608 000000
   19680606 000000      0  19680608 000000
   19680606 000000      0  19680608 000000
   19680606 000000      0  19680608 000000
   19680606 000000      0  19680608 000000
