! -------------------------------------------------------------------- !
! WAVEWATCH III - ww3_grid.nml - Grid pre-processing                   !
! -------------------------------------------------------------------- !

! -------------------------------------------------------------------- !
! Define the spectrum parameterization via SPECTRUM_NML namelist
! -------------------------------------------------------------------- !
&SPECTRUM_NML
  SPECTRUM%XFR       =  1.1
  SPECTRUM%FREQ1     =  0.04118
  SPECTRUM%NK        =  25
  SPECTRUM%NTH       =  24
/

! -------------------------------------------------------------------- !
! Define the run parameterization via RUN_NML namelist
! -------------------------------------------------------------------- !
&RUN_NML
  RUN%FLCX         =  T
  RUN%FLCY         =  T
  RUN%FLCTH        =  T
  RUN%FLCK         =  T
/

! -------------------------------------------------------------------- !
! Define the timesteps parameterization via TIMESTEPS_NML namelist
! -------------------------------------------------------------------- !
&TIMESTEPS_NML
  TIMESTEPS%DTMAX        =  450.
  TIMESTEPS%DTXY         =  60.
  TIMESTEPS%DTKTH        =  60.
  TIMESTEPS%DTMIN        =  60.
/

! -------------------------------------------------------------------- !
! Define the grid to preprocess via GRID_NML namelist
! -------------------------------------------------------------------- !
&GRID_NML
  GRID%NAME         =  'SMC0512 Grid'
  GRID%NML          =  '../input/namelists_SMC0512.nml'
  GRID%TYPE         =  'SMCG'
  GRID%COORD        =  'SPHE'
  GRID%CLOS         =  'NONE'
  GRID%ZLIM         =  -0.1
  GRID%DMIN         =  10.0
/

! -------------------------------------------------------------------- !
! Define the rectilinear grid type via RECT_NML namelist
! -------------------------------------------------------------------- !
&RECT_NML
  RECT%NX           =  256
  RECT%NY           =  128
  RECT%SX           =  0.02000
  RECT%SY           =  0.01600
  RECT%X0           =  276.41000
  RECT%Y0           =  41.02800
/

! -------------------------------------------------------------------- !
! Define the spherical multiple-cell grid via SMC_NML namelist
! -------------------------------------------------------------------- !
&SMC_NML
  SMC%MCELS%FILENAME        =  '../input/ErieSMCel.dat'
  SMC%ISIDE%FILENAME        =  '../input/ErieISide.dat'
  SMC%JSIDE%FILENAME        =  '../input/ErieJSide.dat'
  SMC%SUBTR%FILENAME        =  '../input/ErieObstr.dat'
/

! -------------------------------------------------------------------- !
! WAVEWATCH III - end of namelist                                      !
! -------------------------------------------------------------------- !
