! -------------------------------------------------------------------- !
! WAVEWATCH III ww3_prnc.nml - Field preprocessor                      !
! -------------------------------------------------------------------- !


! -------------------------------------------------------------------- !
! Define the forcing fields to preprocess via FORCING_NML namelist
! -------------------------------------------------------------------- !
&FORCING_NML
  FORCING%FIELD%ICE_PARAM1     = T
  FORCING%GRID%LATLON          = T
/

! -------------------------------------------------------------------- !
! Define the content of the input file via FILE_NML namelist
! -------------------------------------------------------------------- !
&FILE_NML
  FILE%FILENAME      = '../input/ice1.nc'
  FILE%LONGITUDE     = 'x'
  FILE%LATITUDE      = 'y'
  FILE%VAR(1)        = 'ice_thickness'
/

! -------------------------------------------------------------------- !
! WAVEWATCH III - end of namelist                                      !
! -------------------------------------------------------------------- !
