$ WAVEWATCH III Grid output post-processing
$ -----------------------------------------
  19680601 000000 518400. 5
$
N
HS
$
  1 0
$
  1 360 2 2 3 1 T F F
