$ WAVEWATCH III Grid output post-processing
$ -----------------------------------------
  19680606 000000  3600. 25
$
  N
  DPT CUR WND HS TM FP DP PHS PTP PDIR
$
  0 999 0 999  T F
$
$ End of input file
