$ WAVEWATCH III multi-scale input file
$ ------------------------------------
  3 1 T 1 T T
$
  'input' F F T F F F F
$
  'points'
$
  'grd1'  'no' 'no' 'input' 'no' 'no' 'no' 'no'   1  1  0.00 0.50  F
  'grd2'  'no' 'no' 'input' 'no' 'no' 'no' 'no'   2  1  0.25 0.75  F
  'grd3'  'no' 'no' 'input' 'no' 'no' 'no' 'no'   3  1  0.50 1.00  F
$
   19680606 000000   19680607 000000
$
    F F
$
   19680606 000000   3600  19680607 000000
$
$ (1) Forcing Fields
  T
$ DPW CUR WND AST WLV ICE
  T   T   T   T   T   T
$ (2) Standard mean wave Parameters
  T
$ HS  MWL T02 T01 T-1 FP  DIR SPR PKD
  T   T   T   T   T   T   T   T   T
$ (3) Frequency-dependent parameters
  F
$ (4) Spectral Partition Parameters
  T
$ PHS PTP PLP PTH PSP WSF TWS PNR
  T   T   T   T   T   T   T   T
$ (5) Atmosphere-waves layer
  T
$ UST CHK CGE TKU TKW TK- WCC WCT MBH WCM
  T   T   T   T   T   T   T   T   T   T
$ (6) Wave-Ocean layer
  F
$ (7) Wave-bottom layer
  F
$ (8) Spectrum parameters
  F
$ (9) Numerical diagnostics
  F
$ (10) User defined (NOEXTR flags needed)
  F
$
   19680606 000000   3600  19680608 000000
$
     -35.E3    35.E3  'mNW       '
     -50.E3     0.E3  'mW        '
     -35.E3   -35.E3  'mSW       '
       0.E3   -50.E3  'mS        '
      35.E3   -35.E3  'mSE       '
      50.E3     0.E3  'mE        '
      35.E3    35.E3  'mNE       '
       0.E3   100.E3  'aN        '
     -70.E3    70.E3  'aNW       '
    -100.E3     0.E3  'aW        '
     -70.E3   -70.E3  'aSW       '
       0.E3  -100.E3  'aS        '
      70.E3   -70.E3  'aSE       '
     100.E3     0.E3  'aE        '
      70.E3    70.E3  'aNE       '
       0.E3   210.E3  'bN        '
    -150.E3   150.E3  'bNW       '
    -210.E3     0.E3  'bW        '
    -150.E3  -150.E3  'bSW       '
       0.E3  -210.E3  'bS        '
     150.E3  -150.E3  'bSE       '
     210.E3     0.E3  'bE        '
     150.E3   150.E3  'bNE       '
       0.E3   800.E3  'cN        '
    -550.E3   550.E3  'cNW       '
    -800.E3     0.E3  'cW        '
    -550.E3  -550.E3  'cSW       '
       0.E3  -800.E3  'cS        '
     550.E3  -550.E3  'cSE       '
     800.E3     0.E3  'cE        '
     550.E3   550.E3  'cNE       '
       0.E3     0.E3  'STOPSTRING'
$
   19680606 000000      0  19680608 000000
   19680606 000000      0  19680608 000000
   19680606 000000      0  19680608 000000
   19680606 000000      0  19680608 000000
$
$
  'the_end'  0
$
  'MOV' 19680606 000000   5.  90.
  'STP'
$
$ End of input file
