$ WAVEWATCH III Initial conditions input file
$ -------------------------------------------
  1
$  fp   sip     thm  ncos xm      six   ym    siy   hmax
   0.10 0.0025  270. 10 -270.E3 -30.E3 0.E3 999.E6  0.00
