$ WAVEWATCH III Grid preprocessor input file
$ ------------------------------------------
  'Hurricane grid grd3           '
$
   1.10 0.04118 25 24 0.
$
   F T T T F T
  200.  200.  200.  5.
$
  &PRO2 DTIME = 7200. /
$ &PRO3 WDTHCG = 2.5, WDTHTH = 2.5 /
$ &MISC PMOVE = 1.0 , GSHIFT = 1.0D-14 /
  &MISC GSHIFT = 1.0D-14 /
END OF NAMELISTS
$
 'RECT' F 'NONE'
    51         51
     5.00E3     5.00E3   1.
  -125.00E3  -125.00E3   1.
$
  -0.1 0.25  10  -1000. 4 1 '(....)' 'UNIT' 'input'
$
  2601*1
$
   60 1 1 '(....)' 'NAME' '../input/grd3.mask'
$
   0.  0.  0.  0.  0 
$
