$ WAVEWATCH III Grid preprocessor input file
$ ------------------------------------------
  'Hurricane grid grd1           '
$
   1.10 0.04118 25 24 0.
$
   F T T T F T
 1800. 1800. 1800.  5.
$
  &PRO2 DTIME = 7200. /
$ &PRO3 WDTHCG = 2.5, WDTHTH = 2.5 /
$ &MISC PMOVE = 1.0 , GSHIFT = 1.0D-14 /
  &MISC GSHIFT = 1.0D-14 /
END OF NAMELISTS
$
 'RECT' F 'NONE'
    55         55
    50.00E3    50.00E3   1.
 -1350.00E3 -1350.00E3   1.
$
  -0.1 0.25  10  -1000. 4 1 '(....)' 'UNIT' 'input'
$
  3025*1
$
   60 1 1 '(....)' 'NAME' '../input/grd1.mask'
$
   0.  0.  0.  0.  0 
$
