$ WAVEWATCH III multi-scale input file
$ ------------------------------------
  1 1 T 1 T T
$
  'input' F F T F F F F
$
  'points'
$
  'grd3'  'no' 'no' 'input' 'no' 'no' 'no' 'no' 'no' 'no'   1  1  0.00 1.00  F
$
   19680606 000000   19680606 060000
$
    T T
$
   19680606 000000   1800  19680607 000000
$
  N
  DPT CUR WND HS T0M1 FP DP PHS PTP PDIR
$
   19680606 000000   1800  19680607 000000
       0.E3     0.E3  'eye'
       0.E3    50.E3  'mN'
     -35.E3    35.E3  'mNW'
     -50.E3     0.E3  'mW'
     -35.E3   -35.E3  'mSW'
       0.E3   -50.E3  'mS'
      35.E3   -35.E3  'mSE'
      50.E3     0.E3  'mE'
      35.E3    35.E3  'mNE'
       0.E3   100.E3  'aN'
     -70.E3    70.E3  'aNW'
    -100.E3     0.E3  'aW'
     -70.E3   -70.E3  'aSW'
       0.E3  -100.E3  'aS'
      70.E3   -70.E3  'aSE'
     100.E3     0.E3  'aE'
      70.E3    70.E3  'aNE'
       0.E3   210.E3  'bN'
    -150.E3   150.E3  'bNW'
    -210.E3     0.E3  'bW'
    -150.E3  -150.E3  'bSW'
       0.E3  -210.E3  'bS'
     150.E3  -150.E3  'bSE'
     210.E3     0.E3  'bE'
     150.E3   150.E3  'bNE'
       0.E3   800.E3  'cN'
    -550.E3   550.E3  'cNW'
    -800.E3     0.E3  'cW'
    -550.E3  -550.E3  'cSW'
       0.E3  -800.E3  'cS'
     550.E3  -550.E3  'cSE'
     800.E3     0.E3  'cE'
     550.E3   550.E3  'cNE'
       0.E3     0.E3  'STOPSTRING'
$
   19680606 000000      0  19680608 000000
   19680606 000000      0  19680608 000000
   19680606 000000      0  19680608 000000
   19680606 000000      0  19680608 000000
$
$
  'the_end'  0
$
  'MOV' 19680606 000000   5.  90.
  'STP'
$
$ End of input file
