! -------------------------------------------------------------------- !
! WAVEWATCH III ww3_multi.nml - multi-grid model                       !
! -------------------------------------------------------------------- !


! -------------------------------------------------------------------- !
! Define top-level model parameters via DOMAIN_NML namelist
! -------------------------------------------------------------------- !
&DOMAIN_NML
  DOMAIN%NRINP  = 1
  DOMAIN%UNIPTS = T
  DOMAIN%UPPROC = T
  DOMAIN%PSHARE = T
  DOMAIN%FLGHG1 = T
  DOMAIN%FLGHG2 = T
  DOMAIN%STOP   = '19680606 060000'
/

! -------------------------------------------------------------------- !
! Define each input grid via the INPUT_GRID_NML namelist
! -------------------------------------------------------------------- !
&INPUT_GRID_NML
  INPUT(1)%NAME                  = 'input'
  INPUT(1)%FORCING%WINDS         = T
/

! -------------------------------------------------------------------- !
! Define each model grid via the MODEL_GRID_NML namelist
! -------------------------------------------------------------------- !
&MODEL_GRID_NML
  MODEL(1)%NAME                  = 'grd2'
  MODEL(1)%FORCING%WINDS         = 'input'
/

! -------------------------------------------------------------------- !
! Define the output types point parameters via OUTPUT_TYPE_NML namelist
! -------------------------------------------------------------------- !
&OUTPUT_TYPE_NML
  ALLTYPE%FIELD%LIST       = 'DPT CUR WND HS T0M1 FP DP PHS PTP PDIR'
  ALLTYPE%POINT%NAME       = 'points'
  ALLTYPE%POINT%FILE       = '../input/points.list'
/

! -------------------------------------------------------------------- !
! Define output dates via OUTPUT_DATE_NML namelist
! -------------------------------------------------------------------- !
&OUTPUT_DATE_NML
  ALLDATE%FIELD          = '19680606 000000' '1800' '19680607 000000'
  ALLDATE%POINT          = '19680606 000000' '1800' '19680607 000000'
/

! -------------------------------------------------------------------- !
! Define homogeneous input via HOMOG_COUNT_NML and HOMOG_INPUT_NML namelist
! -------------------------------------------------------------------- !
&HOMOG_COUNT_NML
  HOMOG_COUNT%N_MOV                =  1
/

&HOMOG_INPUT_NML
  HOMOG_INPUT(1)%NAME        = 'MOV'
  HOMOG_INPUT(1)%VALUE1      = 5.
  HOMOG_INPUT(1)%VALUE2      = 90.
/

! -------------------------------------------------------------------- !
! WAVEWATCH III - end of namelist                                      !
! -------------------------------------------------------------------- !
