! -------------------------------------------------------------------- !
! WAVEWATCH III - ww3_grid.nml - Grid pre-processing                   !
! -------------------------------------------------------------------- !

! -------------------------------------------------------------------- !
! Define the spectrum parameterization via SPECTRUM_NML namelist
! -------------------------------------------------------------------- !
&SPECTRUM_NML
  SPECTRUM%XFR       =  1.10
  SPECTRUM%FREQ1     =  0.04118
  SPECTRUM%NK        =  25
  SPECTRUM%NTH       =  24
/

! -------------------------------------------------------------------- !
! Define the run parameterization via RUN_NML namelist
! -------------------------------------------------------------------- !
&RUN_NML
  RUN%FLCX         =  T
  RUN%FLCY         =  T
  RUN%FLCTH        =  T
  RUN%FLSOU        =  T
/

! -------------------------------------------------------------------- !
! Define the timesteps parameterization via TIMESTEPS_NML namelist
! -------------------------------------------------------------------- !
&TIMESTEPS_NML
  TIMESTEPS%DTMAX        =  600.
  TIMESTEPS%DTXY         =  600.
  TIMESTEPS%DTKTH        =  600.
  TIMESTEPS%DTMIN        =  5.
/

! -------------------------------------------------------------------- !
! Define the grid to preprocess via GRID_NML namelist
! -------------------------------------------------------------------- !
&GRID_NML
  GRID%NAME         =  'Hurricane grid grd2'
  GRID%NML          =  '../input/namelists_grd2.nml'
  GRID%TYPE         =  'RECT'
  GRID%COORD        =  'CART'
  GRID%CLOS         =  'NONE'
  GRID%ZLIM         =  -0.1
  GRID%DMIN         =  0.25
/

! -------------------------------------------------------------------- !
! Define the rectilinear grid type via RECT_NML namelist
! -------------------------------------------------------------------- !
&RECT_NML
  RECT%NX           =  51
  RECT%NY           =  51
  RECT%SX           =  15.00E3
  RECT%SY           =  15.00E3
  RECT%X0           =  -375.00E3
  RECT%Y0           =  -375.00E3
/

! -------------------------------------------------------------------- !
! Define the depth to preprocess via DEPTH_NML namelist
! -------------------------------------------------------------------- !
&DEPTH_NML
  DEPTH%SF        =  -1000.
  DEPTH%FILENAME  =  '../input/grd2.depth'
  DEPTH%IDLA      =  4
/

! -------------------------------------------------------------------- !
! Define the point status map via MASK_NML namelist
! -------------------------------------------------------------------- !
&MASK_NML
  MASK%FILENAME  =  '../input/grd2.mask'
/

! -------------------------------------------------------------------- !
! WAVEWATCH III - end of namelist                                      !
! -------------------------------------------------------------------- !
