! -------------------------------------------------------------------- !
! WAVEWATCH III ww3_shel.nml - single-grid model                       !
! -------------------------------------------------------------------- !


! -------------------------------------------------------------------- !
! Define top-level model parameters via DOMAIN_NML namelist
! -------------------------------------------------------------------- !
&DOMAIN_NML
  DOMAIN%STOP    = '19680606 120000'
/

! -------------------------------------------------------------------- !
! Define each forcing via the INPUT_NML namelist
! -------------------------------------------------------------------- !
&INPUT_NML
  INPUT%FORCING%ICE_PARAM1    = 'H'
  INPUT%FORCING%ICE_PARAM2    = 'H'
  INPUT%FORCING%ICE_PARAM3    = 'H'
  INPUT%FORCING%ICE_PARAM4    = 'H'
  INPUT%FORCING%ICE_PARAM5    = 'H'
  INPUT%FORCING%MUD_DENSITY   = 'H'
  INPUT%FORCING%MUD_THICKNESS = 'H'
  INPUT%FORCING%ICE_CONC      = 'T'
/

! -------------------------------------------------------------------- !
! Define the output types point parameters via OUTPUT_TYPE_NML namelist
! -------------------------------------------------------------------- !
&OUTPUT_TYPE_NML
  TYPE%FIELD%LIST          = 'DPT WLV HS ICE DIR EF'
  TYPE%POINT%FILE          = '../input_IC4_M5/points.list'
/

! -------------------------------------------------------------------- !
! Define output dates via OUTPUT_DATE_NML namelist
! -------------------------------------------------------------------- !
&OUTPUT_DATE_NML
  DATE%FIELD          = '19680606 000000' '900' '19680606 120000'
  DATE%POINT          = '19680606 000000' '900' '19680606 120000'
/

! -------------------------------------------------------------------- !
! Define homogeneous input via HOMOG_COUNT_NML and HOMOG_INPUT_NML namelist
! -------------------------------------------------------------------- !
&HOMOG_COUNT_NML
  HOMOG_COUNT%N_IC1                =  1
  HOMOG_COUNT%N_IC2                =  1
  HOMOG_COUNT%N_IC3                =  1
  HOMOG_COUNT%N_IC4                =  1
  HOMOG_COUNT%N_IC5                =  1
  HOMOG_COUNT%N_MDN                =  1
  HOMOG_COUNT%N_MTH                =  1
/

&HOMOG_INPUT_NML
  HOMOG_INPUT(1)%NAME        = 'IC1'
  HOMOG_INPUT(1)%VALUE1      = 5.0e-6

  HOMOG_INPUT(2)%NAME        = 'IC2'
  HOMOG_INPUT(2)%VALUE1      = 7.0e-6

  HOMOG_INPUT(3)%NAME        = 'IC3'
  HOMOG_INPUT(3)%VALUE1      = 15.0e-6

  HOMOG_INPUT(4)%NAME        = 'IC4'
  HOMOG_INPUT(4)%VALUE1      = 100.0e-6

  HOMOG_INPUT(5)%NAME        = 'IC5'
  HOMOG_INPUT(5)%VALUE1      = 0.10

  HOMOG_INPUT(6)%NAME        = 'MDN'
  HOMOG_INPUT(6)%VALUE1      = 0.12

  HOMOG_INPUT(7)%NAME        = 'MTH'
  HOMOG_INPUT(7)%VALUE1      = 0.16
/

! -------------------------------------------------------------------- !
! WAVEWATCH III - end of namelist                                      !
! -------------------------------------------------------------------- !
