$ -------------------------------------------------------------------- $
$ WAVEWATCH III Grid output post-processing ( GRIB )                   $
$--------------------------------------------------------------------- $
$ Time, time increment and number of outputs.
$
  19680606 000000  3600. 3
$
$ Output request flags identifying fields as in ww3_shel input and
$ section 2.4 of the manual.
$----------------------------------------------------------------
$ D C W D W  I H L T T  T C F D S  D P P P P  P P W P D  F C C U C
$ P U N T L  C S   0    M G P I P  P H T L T  S W S N T  C F F S H
$ T R D   V  E     2    1 E   R R    S P P H  I S F R D    X D T A
$----------------------------------------------------------------
  F F T F T  T T F T T  T T F F F  F F F F F  F F F T T  F F F F T
  T F F F F  F T T T T  F T F T F  F F F F F  F F F
$----------------------------------------------------------------
$ F T T W W  W W A U B  F T S T J  F T U M M  P U U
$ A A W C C  C C B B E  B B X W    O U S S S  2 S S
$ W W A C F  H M R R D  B B Y O    C S S S C  S 1 2
$----------------------------------------------------------------
$
$ Aditional info needed for grib file
$   Forecast time, center ID, generating process ID, grid definition
$   and GDS/BMS flag
$
  19680606 010000 7 10 255 192
$
$ -------------------------------------------------------------------- $
$ End of input file                                                    $
$ -------------------------------------------------------------------- $
