$ -------------------------------------------------------------------- $
$ WAVEWATCH III Grid output post-processing                            $
$--------------------------------------------------------------------- $
$ Time, time increment and number of outputs
$
 20020101 120000  100  10000
$
$ Output request flags identifying fields as in ww3_shel input and
$ section 2.4 fo the manual.
$
$----------------------------------------------------------------
$ D C W D W  I H W T T  T C F D S  D P P P P  P P W P D  F C C U C
$ P U N T L  C S L 0    M G P I P  P H T L T  S W S N T  C F F S H
$ T R D   V  E     2    1 E   R R    S P P H  I S F R D    X D T A
$----------------------------------------------------------------
  F F T F T  T T F T T  T T F F F  F F F F F  F F F T T  F F F T T
  T F F F F  F T T T T  F T F T F  F F F F F  F F F
$----------------------------------------------------------------
$ F T T W W  W W A U B  F T S T B  F T U M M  P U U
$ A A W C C  C C B B E  B B X W H  O U S S S  2 S S
$ W W A C F  H M R R D  B B Y O    C S S S C  S 1 2
$----------------------------------------------------------------
$
$ Output type 4 [3,4]       (version netCDF)
$ Output type 0 1 2 [0,1,2,3,4,5]   (swell partition)
$ variables T [T] or not [F] in the same file
$
  3
  0 1 2
  T
$
$ -------------------------------------------------------------------- $
$ 
$ File prefix
$ number of characters in date
$ IX, IY range
$
 ww3.         
 6
 1 12518 1 1 3 2
$
$ For each field and time a new file is generated with the file name
$ ww3.date_xxx.nc , where date is a conventional time idicator with S3
$ characters,
$ and xxx is a field identifier.
$
$
$ -------------------------------------------------------------------- $
$ End of input file                                                    $
$ -------------------------------------------------------------------- $
