$ -------------------------------------------------------------------- $
$ WAVEWATCH III Grid output post-processing ( GRIB )                   $
$--------------------------------------------------------------------- $
$ Time, time increment and number of outputs.
$
  19680606 000000  3600. 3
$
$ Output request flags identifying fields as in ww3_shel.inp. See this
$ file for a full documentation of the field output options.
$
  N
  DPT HS FP T01
$
$ Aditional info needed for grib file
$   Forecast time, center ID, generating process ID, grid definition
$   and GDS/BMS flag
$
  19680606 010000 7 10 255 192
$
$ -------------------------------------------------------------------- $
$ End of input file                                                    $
$ -------------------------------------------------------------------- $
