$ WAVEWATCH III Point output post-processing
$ ------------------------------------------
  19680606 000000 21600.  9
$
  1
  2 
  3
  4
  6
  8
 10
 12 
 16
 20
 24
 -1
$
  1
$
  1   0.  0.  33  F
