$ WAVEWATCH III shell input file
$ ------------------------------
   F F     Water levels
   F F     Currents
   F F     Winds
   F F     Ice concentrations
   F F     Atmospheric momentum
   F F     Air density
   F       Assimilation data : Mean parameters
   F       Assimilation data : 1-D spectra
   F       Assimilation data : 2-D spectra.
$
   20180701 000000
   20180701 000130
$
   1
$
   20180701 000000 2 20180701 010000
$
N
WLV T02 DIR CUR HS T0M1 FP SXX SXY SYY DPT
$
   20180701 000000  2  20180701 010000
$
$output points for Inlet
$
$
1 0.0 a01
2 0.0 a02
3 0.0 a03
4 0.0 a04
5 0.0 a05
6 0.0 a06
7 0.0 a07
8 0.0 a08
9 0.0 a09
10 0.0 a10
11 0.0 a11
12 0.0 a12
13 0.0 a13
14 0.0 a14
15 0.0 a15
15.5 0.0 a16
16 0.0 a17
16.5 0.0 a18
17 0.0 a19
17.5 0.0 a20
18 0.0 a21
18.5 0.0 a22
19 0.0 a23
19.2 0.0 a24
19.4 0.0 a25
19.6 0.0 a26
19.8 0.0 a27
20 0.0 a28
20.2 0.0 a29
20.4 0.0 a30
20.6 0.0 a31
20.8 0.0 a32
21 0.0 a33
21.2 0.0 a34
21.4 0.0 a35
21.6 0.0 a36
21.8 0.0 a37
22 0.0 a38
22.2 0.0 a39
22.4 0.0 a40
22.6 0.0 a41
22.8 0.0 a42
23 0.0 a43
23.2 0.0 a44
23.4 0.0 a45
23.6 0.0 a46
23.8 0.0 a47
24 0.0 a48
24.2 0.0 a49
24.4 0.0 a50
24.6 0.0 a51
24.8 0.0 a52
25 0.0 a53
25.2 0.0 a54
25.4 0.0 a55
25.6 0.0 a56
25.8 0.0 a57
26 0.0 a58
26.2 0.0 a59
26.4 0.0 a60
26.56 0.0 a61
26.8 0.0 a62
27 0.0 a63
27.25 0.0 a64
27.5 0.0 a65
27.75 0.0 a66
28 0.0 a67
28.25 0.0 a68
28.5 0.0 a69
$
     0.0   0.0  'STOPSTRING'
$
   19680606 000000      0  19680608 000000
   19680606 000000      0  19680608 000000
   19680606 000000      0  19680608 000000
   19680606 000000      0  19680608 000000
$
