unidentified test (set in file spec_ids)
WAVEWATCH III TEST
