#!/bin/sh
# ---------------------------------------------------------------------------- #
# thread_start.sh : Stop a version of the threaded engine to compute errors.   #
#                   Basic single thread version.                               #
#                                                                              #
# remarks : When modifying this script for another environment take care of    #
#           the following requirements for the system to work.                 #
#            - The first line of the datafile contains the number of threads   #
#              only. The rest of the file depends on the engine.               #
#            - User modifications should be limited to section 3.              #
#            - Limit communication to $datafile only.                          #
#            - Each thread should generate output file thread_NN.out.          #
#                                                                              #
#                                      Author      : Hendrik L. Tolman         #
#                                                                              #
# 22-Dec-2008 : Origination.                                                   #
# 16-Feb-2010 : Adapt for up to 999 threads.                                   #
#                                                                              #
#    Copyright 2008-2010 National Weather Service (NWS),                       #
#       National Oceanic and Atmospheric Administration.  All rights           #
#       reserved.  Distributed as part of WAVEWATCH III. WAVEWATCH III is a    #
#       trademark of the NWS. No unauthorized use without permission.          #
#                                                                              #
# ---------------------------------------------------------------------------- #
# 1. Initialization

  nr_threads=1
  datafile=threads.data

  echo "$nr_threads" > $datafile

# ---------------------------------------------------------------------------- #
# 2. Set up control files for threads

  i=1
  rm -f tdata.???

  while [ "$i" -le "$nr_threads" ]
  do
    if [ "$i" -lt '100' ] ; then
      i="0$i" ; fi
    if [ "$i" -lt '10' ] ; then
      i="0$i" ; fi
    echo "starting" > tdata.$i
    i=`expr $i + 1`
  done

# ---------------------------------------------------------------------------- #
# 3. Start threads and add data to datafile

  $genes_main/ush/run_thread.sh 001 > thread_001.out &

  sleep 1
  ps > tempfile
  pid=`cat tempfile | grep run_thread.sh | awk '{print $1}'`
  rm -f tempfile

  echo $pid >> $datafile

# End of thread_start.sh ----------------------------------------------------- #
