#!/bin/sh
# ---------------------------------------------------------------------------- #
# thread_check.sh : Stop a version of the threaded engine to compute errors.   #
#                   Basic single thread version.                               #
#                                                                              #
# remarks : When modifying this script for another environment take care of    #
#           the following requirements for the system to work.                 #
#            - Set tdata in section 1.                                         #
#            - Adjust section 2.b as needed.                                   #
#         - This is a safety valve, therefore the sleep at the end of the      #
#           script can be long.                                                #
#                                                                              #
#                                      Author      : Hendrik L. Tolman         #
#                                                                              #
# 23-Dec-2008 : Origination.                                                   #
# 16-Feb-2010 : Adapt for up to 999 threads.                                   #
#                                                                              #
#    Copyright 2008-2010 National Weather Service (NWS),                       #
#       National Oceanic and Atmospheric Administration.  All rights           #
#       reserved.  Distributed as part of WAVEWATCH III. WAVEWATCH III is a    #
#       trademark of the NWS. No unauthorized use without permission.          #
#                                                                              #
# ---------------------------------------------------------------------------- #
# 1. Initialization

  set -e

  echo "thread_check.sh: keep track of control.sh and threads :"
  echo "-------------------------------------------------------"
  mother=$1
  mname="`ps | grep $mother | awk '{print $4}'`"
  me=$$
  myname="`ps | grep $me | awk '{print $4}'`"
  nth=`sed -n 1,1p threads.data | awk '{print $1}'`

  echo "   mother process $mother [$mname]"
  echo "   my process $me [$myname]"
  echo "   number of threads is $nth"

  tdata=`sed -n 2,2p threads.data`

# ---------------------------------------------------------------------------- #
# 2. Testing loop

  echo ' '
  echo '   start testing'
  end='n'
  terr=0

  until [ "$end" = 'y' ]
  do

# 2.a check on mother script

    check="`ps | grep $mother | awk '{print $4}'`"
    if [ -z "$check" ]
    then
      echo "   mother script stopped"
      end='y'
    fi

# 2.b check on threads

    i=1
    active=0
    set $tdata
    while [ "$i" -le "$nth" ]
    do
      proc=$1 ; shift
      if [ -n "`ps aux | awk '{ print $2}' | grep $proc `" ]
      then
        check='active'
        active=`expr $active + 1`
      else
        check='gone'
      fi
      i=`expr $i + 1`
    done

    if [ "$active" = '0' ]
    then
      echo "   no more active threads"
      i=1
      error=0
      while [ "$i" -le "$nth" ]
      do
        if [ "$i" -lt '100' ] ; then
          i="0$i" ; fi
        if [ "$i" -lt '10' ] ; then
          i="0$i" ; fi
        file="tdata.$i"
        if [ -f $file ]
        then
          key=`head -1 $file | awk '{print $1}'`
          if [ "$key" != 'done' ] &&  [ "$key" != 'ready' ]
          then
            error=`expr $error + 1`
            echo "ready to go" > $file
          fi
        fi

        if [ "$error" = '0' ]
        then
          end='y'
        else
          terr=`expr $terr + 1`
          if [ "$terr" -gt '1' ]
          then
            echo "   threads do not work properly, stopping mother script"
            kill -9 $mother
            end='y'
          fi
        fi

        i=`expr $i + 1`
      done

    fi

  if [ "$end" != 'y' ] ; then
    sleep 300 ; fi

  done

# ---------------------------------------------------------------------------- #
# 3. End of processiing

  echo ' '
  echo 'End of thread_check.sh'

# End of thread_check.sh ----------------------------------------------------- #
