#!/bin/sh
# ---------------------------------------------------------------------------- #
# thread_check.sh : Check a version of the threaded engine to compute errors.  #
#                   IBL LoadLeveler version.                                   #
#                                                                              #
# remarks : When modifying this script for another environment take care of    #
#           the following requirements for the system to work.                 #
#            - Set tdata in section 1.                                         #
#            - Adjust section 2.b as needed.                                   #
#         - This is a safety valve, therefore the sleep at the end of the      #
#           script can be long.                                                #
#                                                                              #
#                                      Author      : Hendrik L. Tolman         #
#                                                                              #
# 12-Feb-2010 : Origination.                                                   #
# 18-Mar-2010 : Make ll check two deep, increase sleep time.                   #
#                                                                              #
#    Copyright 2010 National Weather Service (NWS),                            #
#       National Oceanic and Atmospheric Administration.  All rights           #
#       reserved.  Distributed as part of WAVEWATCH III. WAVEWATCH III is a    #
#       trademark of the NWS. No unauthorized use without permission.          #
#                                                                              #
# ---------------------------------------------------------------------------- #
# 1. Initialization

  set -e

  echo "thread_check.sh: keep track of control.sh and threads :"
  echo "-------------------------------------------------------"
  mother=$1

  ps > tmpfile
  mname="`cat tmpfile | grep $mother | awk '{print $5}'`"

  me=$$
  myname="`cat tmpfile | grep $me | awk '{print $5}'`"
  rm -f tmpfile

  nth=`sed -n 1,1p threads.data | awk '{print $1}'`
  tdata=`sed -n 2,2p threads.data`

  echo "   mother process $mother [$mname]"
  echo "   my process $me [$myname]"
  echo "   number of threads is $nth"
  echo "   threads job is $tdata"

# ---------------------------------------------------------------------------- #
# 2. Testing loop

  sleep 15

  echo ' '
  echo '   start testing'
  end='n'
  terr=0

  until [ "$end" = 'y' ]
  do

# 2.a check on mother script

    check="`ps | grep $mother | awk '{print $4}'`"
    if [ -z "$check" ]
    then
      echo "   mother script stopped"
      end='y'
    else
      echo "   mother script running"
    fi

# 2.b check on threads (job exists in ll)

    set +e
    check="`llq 2> /dev/null | grep $tdata`"
    set -e
    if [ -z "$check" ]
    then
      sleep 300
      set +e
      check="`llq 2> /dev/null | grep $tdata`"
      set -e
      if [ -z "$check" ]
      then
        echo "   ll job disappeared"
        end='y'
        kill -9 $mother
      else
        echo "   ll job present"
      fi
    fi

    if [ "$end" != 'y' ] ; then
      sleep 600 ; fi

  done

# ---------------------------------------------------------------------------- #
# 3. End of processiing

  echo ' '
  echo 'End of thread_check.sh'

# End of thread_check.sh ----------------------------------------------------- #
