#!/bin/sh
# ---------------------------------------------------------------------------- #
# thread_wait.sh :  Wait for a version of the threaded engine to finish.       #
#                   Version for cluster 'snits'. 16 processes on 4 nodes       #
#                   with up to 4 added on front end.                           #
#                                                                              #
#                                      Author      : Hendrik L. Tolman         #
#                                                                              #
# 23-Dec-2008 : Origination.                                                   #
# 16-Feb-2010 : Adapt for up to 999 threads.                                   #
#                                                                              #
#    Copyright 2008-2010 National Weather Service (NWS),                       #
#       National Oceanic and Atmospheric Administration.  All rights           #
#       reserved.  Distributed as part of WAVEWATCH III. WAVEWATCH III is a    #
#       trademark of the NWS. No unauthorized use without permission.          #
#                                                                              #
# ---------------------------------------------------------------------------- #
# 1. Initialization

  nr_threads=`sed -n 1,1p threads.data | awk '{print $1}'`
  procs=`sed -n 2,2p threads.data`

# 2. Waiting game

  OK='n'
  until [ "$OK" = 'y' ]
  do
    OK_p='y'
    for proc in $procs
    do
      if [ -n "`ps | grep $proc`" ] ; then
        OK_p='n' ; fi
    done

    i=1
    OK_d='y'
    while [ "$i" -le "$nr_threads" ]
    do
      if [ "$i" -lt '100' ] ; then
        i="0$i" ; fi
      if [ "$i" -lt '10' ] ; then
        i="0$i" ; fi
      if [ -d thread_$i ] ; then
        OK_d='n' ; fi
      i=`expr $i + 1`
    done

    if [ "$OK_p" = 'y' ] || [ "$OK_d" = 'y' ]
    then
      OK='y'
    else
      sleep 5
    fi

  done

# End of thread_wait.sh ------------------------------------------------------ #
