$ WAVEWATCH III Point output post-processing
$ ------------------------------------------
  19680607 120000 000000  3600. 1
$ 
  3
 -1
$
  2
  2  50
$ 
$ End of input file
