$ WAVEWATCH III Grid preprocessor input file
$ ------------------------------------------
  'The outer grid @ 10 km        '
$
   1.03 0.075 20 24 0.
$
   F T T T F F
   720.  720.  720.   15.
$
  &PRO2 DTIME = 0. /
  &PRO3 WDTHCG = 0., WDTHTH = 0. /
  &PRO4 RNFAC = 0., RSFAC = 0. /
END OF NAMELISTS
$
   'RECT' F 'NONE'
   55   55
    10.E3   10.E3   1.
  -270.E3 -270.E3   1.
$
  -0.1 0.25  10  -250. 4 1 '(....)' 'UNIT' 'input'
$
  3192*1
$
   10 1 1 '(....)' 'PART' 'mapsta.inp'
$
  54  1  T
   1  1  T
   1 55  T
  54 55  T
   0  0  F
   0  0  F
   0  0
$
    -125.E3  -25.E3   1.E3   1.E3    1
    -125.E3  -20.E3   1.E3   1.E3    1
    -125.E3  -15.E3   1.E3   1.E3    1
    -125.E3  -10.E3   1.E3   1.E3    1
    -125.E3   -5.E3   1.E3   1.E3    1
    -125.E3    0.E3   1.E3   1.E3    1
    -125.E3    5.E3   1.E3   1.E3    1
    -125.E3   10.E3   1.E3   1.E3    1
    -125.E3   15.E3   1.E3   1.E3    1
    -125.E3   20.E3   1.E3   1.E3    1
    -125.E3   25.E3   1.E3   1.E3    1
    -120.E3  -40.E3   1.E3   1.E3    1
    -120.E3  -35.E3   1.E3   1.E3    1
    -120.E3  -30.E3   1.E3   1.E3    1
    -120.E3   30.E3   1.E3   1.E3    1
    -120.E3   35.E3   1.E3   1.E3    1
    -120.E3   40.E3   1.E3   1.E3    1
    -115.E3  -55.E3   1.E3   1.E3    1
    -115.E3  -50.E3   1.E3   1.E3    1
    -115.E3  -45.E3   1.E3   1.E3    1
    -115.E3   45.E3   1.E3   1.E3    1
    -115.E3   50.E3   1.E3   1.E3    1
    -115.E3   55.E3   1.E3   1.E3    1
    -110.E3  -60.E3   1.E3   1.E3    1
    -110.E3   60.E3   1.E3   1.E3    1
    -105.E3  -70.E3   1.E3   1.E3    1
    -105.E3  -65.E3   1.E3   1.E3    1
    -105.E3   65.E3   1.E3   1.E3    1
    -105.E3   70.E3   1.E3   1.E3    1
    -100.E3  -75.E3   1.E3   1.E3    1
    -100.E3   75.E3   1.E3   1.E3    1
     -95.E3  -85.E3   1.E3   1.E3    1
     -95.E3  -80.E3   1.E3   1.E3    1
     -95.E3   80.E3   1.E3   1.E3    1
     -95.E3   85.E3   1.E3   1.E3    1
     -90.E3  -90.E3   1.E3   1.E3    1
     -90.E3   90.E3   1.E3   1.E3    1
     -85.E3  -95.E3   1.E3   1.E3    1
     -85.E3   95.E3   1.E3   1.E3    1
     -80.E3  -95.E3   1.E3   1.E3    1
     -80.E3   95.E3   1.E3   1.E3    1
     -75.E3 -100.E3   1.E3   1.E3    1
     -75.E3  100.E3   1.E3   1.E3    1
     -70.E3 -105.E3   1.E3   1.E3    1
     -70.E3  105.E3   1.E3   1.E3    1
     -65.E3 -105.E3   1.E3   1.E3    1
     -65.E3  105.E3   1.E3   1.E3    1
     -60.E3 -110.E3   1.E3   1.E3    1
     -60.E3  110.E3   1.E3   1.E3    1
     -55.E3 -115.E3   1.E3   1.E3    1
     -55.E3  115.E3   1.E3   1.E3    1
     -50.E3 -115.E3   1.E3   1.E3    1
     -50.E3  115.E3   1.E3   1.E3    1
     -45.E3 -115.E3   1.E3   1.E3    1
     -45.E3  115.E3   1.E3   1.E3    1
     -40.E3 -120.E3   1.E3   1.E3    1
     -40.E3  120.E3   1.E3   1.E3    1
     -35.E3 -120.E3   1.E3   1.E3    1
     -35.E3  120.E3   1.E3   1.E3    1
     -30.E3 -120.E3   1.E3   1.E3    1
     -30.E3  120.E3   1.E3   1.E3    1
     -25.E3 -125.E3   1.E3   1.E3    1
     -25.E3  125.E3   1.E3   1.E3    1
     -20.E3 -125.E3   1.E3   1.E3    1
     -20.E3  125.E3   1.E3   1.E3    1
     -15.E3 -125.E3   1.E3   1.E3    1
     -15.E3  125.E3   1.E3   1.E3    1
     -10.E3 -125.E3   1.E3   1.E3    1
     -10.E3  125.E3   1.E3   1.E3    1
      -5.E3 -125.E3   1.E3   1.E3    1
      -5.E3  125.E3   1.E3   1.E3    1
       0.E3 -125.E3   1.E3   1.E3    1
       0.E3  125.E3   1.E3   1.E3    1
       5.E3 -125.E3   1.E3   1.E3    1
       5.E3  125.E3   1.E3   1.E3    1
      10.E3 -125.E3   1.E3   1.E3    1
      10.E3  125.E3   1.E3   1.E3    1
      15.E3 -125.E3   1.E3   1.E3    1
      15.E3  125.E3   1.E3   1.E3    1
      20.E3 -125.E3   1.E3   1.E3    1
      20.E3  125.E3   1.E3   1.E3    1
      25.E3 -125.E3   1.E3   1.E3    1
      25.E3  125.E3   1.E3   1.E3    1
      30.E3 -120.E3   1.E3   1.E3    1
      30.E3  120.E3   1.E3   1.E3    1
      35.E3 -120.E3   1.E3   1.E3    1
      35.E3  120.E3   1.E3   1.E3    1
      40.E3 -120.E3   1.E3   1.E3    1
      40.E3  120.E3   1.E3   1.E3    1
      45.E3 -115.E3   1.E3   1.E3    1
      45.E3  115.E3   1.E3   1.E3    1
      50.E3 -115.E3   1.E3   1.E3    1
      50.E3  115.E3   1.E3   1.E3    1
      55.E3 -115.E3   1.E3   1.E3    1
      55.E3  115.E3   1.E3   1.E3    1
      60.E3 -110.E3   1.E3   1.E3    1
      60.E3  110.E3   1.E3   1.E3    1
      65.E3 -105.E3   1.E3   1.E3    1
      65.E3  105.E3   1.E3   1.E3    1
      70.E3 -105.E3   1.E3   1.E3    1
      70.E3  105.E3   1.E3   1.E3    1
      75.E3 -100.E3   1.E3   1.E3    1
      75.E3  100.E3   1.E3   1.E3    1
      80.E3  -95.E3   1.E3   1.E3    1
      80.E3   95.E3   1.E3   1.E3    1
      85.E3  -95.E3   1.E3   1.E3    1
      85.E3   95.E3   1.E3   1.E3    1
      90.E3  -90.E3   1.E3   1.E3    1
      90.E3   90.E3   1.E3   1.E3    1
      95.E3  -85.E3   1.E3   1.E3    1
      95.E3  -80.E3   1.E3   1.E3    1
      95.E3   80.E3   1.E3   1.E3    1
      95.E3   85.E3   1.E3   1.E3    1
     100.E3  -75.E3   1.E3   1.E3    1
     100.E3   75.E3   1.E3   1.E3    1
     105.E3  -70.E3   1.E3   1.E3    1
     105.E3  -65.E3   1.E3   1.E3    1
     105.E3   65.E3   1.E3   1.E3    1
     105.E3   70.E3   1.E3   1.E3    1
     110.E3  -60.E3   1.E3   1.E3    1
     110.E3   60.E3   1.E3   1.E3    1
     115.E3  -55.E3   1.E3   1.E3    1
     115.E3  -50.E3   1.E3   1.E3    1
     115.E3  -45.E3   1.E3   1.E3    1
     115.E3   45.E3   1.E3   1.E3    1
     115.E3   50.E3   1.E3   1.E3    1
     115.E3   55.E3   1.E3   1.E3    1
     120.E3  -40.E3   1.E3   1.E3    1
     120.E3  -35.E3   1.E3   1.E3    1
     120.E3  -30.E3   1.E3   1.E3    1
     120.E3   30.E3   1.E3   1.E3    1
     120.E3   35.E3   1.E3   1.E3    1
     120.E3   40.E3   1.E3   1.E3    1
     125.E3  -25.E3   1.E3   1.E3    1
     125.E3  -20.E3   1.E3   1.E3    1
     125.E3  -15.E3   1.E3   1.E3    1
     125.E3  -10.E3   1.E3   1.E3    1
     125.E3   -5.E3   1.E3   1.E3    1
     125.E3    0.E3   1.E3   1.E3    1
     125.E3    5.E3   1.E3   1.E3    1
     125.E3   10.E3   1.E3   1.E3    1
     125.E3   15.E3   1.E3   1.E3    1
     125.E3   20.E3   1.E3   1.E3    1
     125.E3   25.E3   1.E3   1.E3    1
       0.E3    0.E3   1.E3   1.E3    0
$
