$ WAVEWATCH III Initial conditions input file
$ -------------------------------------------
$ ITYPE: 1= GAUSSIAN
 1
$  fp     sip     thm ncos   xm    six   ym  siy hmax
   0.125  0.0001  90. 200  -83.01 -0.01  9.99 2.8 4.
EOF

