$ WAVEWATCH III Grid output post-processing ( GrADS )
$ ---------------------------------------------------
  19680606 000000   900. 999
$
  N
  HS  FP  DP
$
  0 999 0 999  T T
$
  1  1
  1 23 1 1 23 1 F F T
