$ WAVEWATCH III Point output post-processing
$ ------------------------------------------
  19680606 000000  10800. 999
$
  1
  2
  3
  4
 -1
$
  T T T T T T
