$ -------------------------------------------------------------------- $
$ WAVEWATCH III Grid output post-processing                            $
$--------------------------------------------------------------------- $
$ Time, time increment and number of outputs
$
  19680606 000000 3600 999
$
  N
  HS
$
  3 0
  1 999 1 999 1 1
