! -------------------------------------------------------------------- !
! WAVEWATCH III ww3_shel.nml - single-grid model                       !
! -------------------------------------------------------------------- !


! -------------------------------------------------------------------- !
! Define top-level model parameters via DOMAIN_NML namelist
! -------------------------------------------------------------------- !
&DOMAIN_NML
  DOMAIN%STOP    = '19680606 120000'
/

! -------------------------------------------------------------------- !
! Define each forcing via the INPUT_NML namelist
! -------------------------------------------------------------------- !
&INPUT_NML
  INPUT%FORCING%WATER_LEVELS  = 'H'
  INPUT%FORCING%ICE_CONC      = 'T'
/

! -------------------------------------------------------------------- !
! Define the output types point parameters via OUTPUT_TYPE_NML namelist
! -------------------------------------------------------------------- !
&OUTPUT_TYPE_NML
  TYPE%FIELD%LIST          = 'HS FP DP ICE'
  TYPE%POINT%FILE          = '../input/points.list'
/

! -------------------------------------------------------------------- !
! Define output dates via OUTPUT_DATE_NML namelist
! -------------------------------------------------------------------- !
&OUTPUT_DATE_NML
  DATE%FIELD          = '19680606 000000' '450' '19680607 000000'
  DATE%POINT          = '19680606 000000' '450' '19680607 000000'
/

! -------------------------------------------------------------------- !
! Define homogeneous input via HOMOG_COUNT_NML and HOMOG_INPUT_NML namelist
! -------------------------------------------------------------------- !
&HOMOG_COUNT_NML
  HOMOG_COUNT%N_LEV                =  13
/

&HOMOG_INPUT_NML
  HOMOG_INPUT(1)%NAME        = 'LEV'
  HOMOG_INPUT(1)%VALUE1      = 1.5

  HOMOG_INPUT(2)%NAME        = 'LEV'
  HOMOG_INPUT(2)%DATE        = '19680606 010000'
  HOMOG_INPUT(2)%VALUE1      = 1.0

  HOMOG_INPUT(3)%NAME        = 'LEV'
  HOMOG_INPUT(3)%DATE        = '19680606 020000'
  HOMOG_INPUT(3)%VALUE1      = 0.5

  HOMOG_INPUT(4)%NAME        = 'LEV'
  HOMOG_INPUT(4)%DATE        = '19680606 030000'
  HOMOG_INPUT(4)%VALUE1      = 0.0

  HOMOG_INPUT(5)%NAME        = 'LEV'
  HOMOG_INPUT(5)%DATE        = '19680606 040000'
  HOMOG_INPUT(5)%VALUE1      = -0.5

  HOMOG_INPUT(6)%NAME        = 'LEV'
  HOMOG_INPUT(6)%DATE        = '19680606 050000'
  HOMOG_INPUT(6)%VALUE1      = -1.0

  HOMOG_INPUT(7)%NAME        = 'LEV'
  HOMOG_INPUT(7)%DATE        = '19680606 060000'
  HOMOG_INPUT(7)%VALUE1      = -1.5

  HOMOG_INPUT(8)%NAME        = 'LEV'
  HOMOG_INPUT(8)%DATE        = '19680606 070000'
  HOMOG_INPUT(8)%VALUE1      = -2.0

  HOMOG_INPUT(9)%NAME        = 'LEV'
  HOMOG_INPUT(9)%DATE        = '19680606 080000'
  HOMOG_INPUT(9)%VALUE1      = -2.5

  HOMOG_INPUT(10)%NAME        = 'LEV'
  HOMOG_INPUT(10)%DATE        = '19680606 090000'
  HOMOG_INPUT(10)%VALUE1      = -2.0

  HOMOG_INPUT(11)%NAME        = 'LEV'
  HOMOG_INPUT(11)%DATE        = '19680606 100000'
  HOMOG_INPUT(11)%VALUE1      = -1.0

  HOMOG_INPUT(12)%NAME        = 'LEV'
  HOMOG_INPUT(12)%DATE        = '19680606 110000'
  HOMOG_INPUT(12)%VALUE1      = 0.0

  HOMOG_INPUT(13)%NAME        = 'LEV'
  HOMOG_INPUT(13)%DATE        = '19680606 120000'
  HOMOG_INPUT(13)%VALUE1      = 0.0
/

! -------------------------------------------------------------------- !
! WAVEWATCH III - end of namelist                                      !
! -------------------------------------------------------------------- !
