$ WAVEWATCH III Grid output post-processing
$ -----------------------------------------
  19680606 000000  3600. 13
$
  N
  HS
$
  1  1
  1 23 1 1 23 1 F F T
