$ WAVEWATCH III shell input file
$ ------------------------------
   T T
   F T
   F T
   T
   F
   F
   F
$
   19680606 000000
   19680606 120000
$
   1
$
   19680606 000000    450  19680607 000000
$
  N
  HS FP DP
$
   19680606 000000    450  19680607 000000
   100.E3 100.E3  'point_A'
   150.E3 150.E3  'point_B'
    50.E3 180.E3  'point_C'
    60.E3 170.E3  'point_D'
     0.E3   0.E3  'STOPSTRING'
   19680606 000000      0  19680607 000000
   19680606 000000      0  19680607 000000
   19680606 000000      0  19680607 000000
   19680606 000000      0  19680607 000000
$
   'LEV' 19680606 000000    1.5
   'LEV' 19680606 010000    1.0
   'LEV' 19680606 020000    0.5
   'LEV' 19680606 030000    0.0
   'LEV' 19680606 040000   -0.5
   'LEV' 19680606 050000   -1.0
   'LEV' 19680606 060000   -1.5
   'LEV' 19680606 070000   -2.0
   'LEV' 19680606 080000   -2.5
   'LEV' 19680606 090000   -2.0
   'LEV' 19680606 100000   -1.0
   'LEV' 19680606 110000    0.0
   'LEV' 19680606 120000    0.0
   'STP'
