#!/bin/sh
# ---------------------------------------------------------------------------- #
# control.stop : Gracefully shutting down control.sh and control.cycle by      #
#                changing control.status file.                                 #
#                                                                              #
# usage: control.stop                                                          #
#                                                                              #
#                                      Author      : Hendrik L. Tolman         #
#                                                                              #
# 02-Nov-2009 : Origination.                                                   #
#                                                                              #
#    Copyright 2009-2010 National Weather Service (NWS),                       #
#       National Oceanic and Atmospheric Administration.  All rights           #
#       reserved.  Distributed as part of WAVEWATCH III. WAVEWATCH III is a    #
#       trademark of the NWS. No unauthorized use without permission.          #
#                                                                              #
# ---------------------------------------------------------------------------- #
# 1. Initialization

  set -e

  echo ' '
  echo 'control.stop : '`date`
  echo '------------------------------------------------'
  echo '   Shutting down control.sh and control.cycle'
  echo '   control.cron and tcon need to be done separately'
  echo ' '

  setup='.genes.env'

# ---------------------------------------------------------------------------- #
# 2. Get base setup for the runs

  if [ -f ~/$setup ]
  then
    echo "   Setup file $setup found."
    . ~/$setup
  else
    echo "   Setup file $setup NOT found (abort)."
    exit 2
  fi
  all_cases=`$genes_main/ush/get_cases.sh`

# ---------------------------------------------------------------------------- #
# 3.  Resetting status file.

  echo "   Resetting $genes_main/control.status ..."

  echo "#!/bin/sh"                > $genes_main/control.status
  echo " "                       >> $genes_main/control.status
  echo "  export status=stop"    >> $genes_main/control.status

  chmod 700 $genes_main/control.status

# ---------------------------------------------------------------------------- #
# 4. End of script

  echo ' '
  echo 'Out of control.stop '`date`

# End of control.sh ---------------------------------------------------------- #
