! -------------------------------------------------------------------- !
! WAVEWATCH III ww3_ounf.nml - Grid output post-processing             !
! -------------------------------------------------------------------- !

! -------------------------------------------------------------------- !
! Define the output fields to postprocess via FIELD_NML namelist
! -------------------------------------------------------------------- !
&FIELD_NML
  FIELD%TIMESTART        =  '19680606 000000'
  FIELD%TIMESTRIDE       =  '10800.'
  FIELD%TIMECOUNT        =  '9'
  FIELD%TIMESPLIT        =  8
  FIELD%LIST             =  'HS T01'
  FIELD%PARTITION        =  '0'
  FIELD%TYPE             =  4
/

! -------------------------------------------------------------------- !
! Define the content of the output file via FILE_NML namelist
! -------------------------------------------------------------------- !
&FILE_NML
  FILE%NETCDF        = 4
/

! -------------------------------------------------------------------- !
! Define the content of the output file via SMC_NML namelist
! -------------------------------------------------------------------- !
&SMC_NML
  SMC%TYPE        = 2
  SMC%EYO         = 89.0
  SMC%CELFAC      = 4
/

! -------------------------------------------------------------------- !
! WAVEWATCH III - end of namelist                                      !
! -------------------------------------------------------------------- !
