! -------------------------------------------------------------------- !
! WAVEWATCH III - ww3_grid.nml - Grid pre-processing                   !
! -------------------------------------------------------------------- !

! -------------------------------------------------------------------- !
! Define the spectrum parameterization via SPECTRUM_NML namelist
! -------------------------------------------------------------------- !
&SPECTRUM_NML
  SPECTRUM%XFR       =  1.1
  SPECTRUM%FREQ1     =  0.04118
  SPECTRUM%NK        =  30
  SPECTRUM%NTH       =  30
/

! -------------------------------------------------------------------- !
! Define the run parameterization via RUN_NML namelist
! -------------------------------------------------------------------- !
&RUN_NML
  RUN%FLCX         =  T
  RUN%FLCY         =  T
  RUN%FLCTH        =  T
  RUN%FLCK         =  T
/

! -------------------------------------------------------------------- !
! Define the timesteps parameterization via TIMESTEPS_NML namelist
! -------------------------------------------------------------------- !
&TIMESTEPS_NML
  TIMESTEPS%DTMAX        =  1800.
  TIMESTEPS%DTXY         =  600.
  TIMESTEPS%DTKTH        =  450.
  TIMESTEPS%DTMIN        =  300.
/

! -------------------------------------------------------------------- !
! Define the grid to preprocess via GRID_NML namelist
! -------------------------------------------------------------------- !
&GRID_NML
  GRID%NAME         =  'A50SMC Grid'
  GRID%NML          =  '../input/namelists_A50SMC.nml'
  GRID%TYPE         =  'SMCG'
  GRID%COORD        =  'SPHE'
  GRID%CLOS         =  'SMPL'
  GRID%ZLIM         =  -0.1
  GRID%DMIN         =  10.0
/

! -------------------------------------------------------------------- !
! Define the rectilinear grid type via RECT_NML namelist
! -------------------------------------------------------------------- !
&RECT_NML
  RECT%NX           =  512
  RECT%NY           =  54
  RECT%SX           =  0.7031250
  RECT%SY           =  0.4687500
  RECT%X0           =  0.3515625
  RECT%Y0           =  64.921875
/

! -------------------------------------------------------------------- !
! Define the spherical multiple-cell grid via SMC_NML namelist
! -------------------------------------------------------------------- !
&SMC_NML
  SMC%MCELS%FILENAME        =  '../input/A50SMCels.dat'
  SMC%ISIDE%FILENAME        =  '../input/A50GISide.dat'
  SMC%JSIDE%FILENAME        =  '../input/A50GJSide.dat'
  SMC%SUBTR%FILENAME        =  '../input/A50GObstr.dat'
  SMC%MBARC%FILENAME        =  '../input/A50SMCBAr.dat'
  SMC%AISID%FILENAME        =  '../input/A50AISide.dat'
  SMC%AJSID%FILENAME        =  '../input/A50AJSide.dat'
/

! -------------------------------------------------------------------- !
! WAVEWATCH III - end of namelist                                      !
! -------------------------------------------------------------------- !
