'WAVEWATCH III SPECTRA'     32    24     1 'MULTIGRID GLOBAL05+OTHERS     '
 0.373E-01 0.410E-01 0.451E-01 0.496E-01 0.546E-01 0.601E-01 0.661E-01 0.727E-01
 0.800E-01 0.880E-01 0.967E-01 0.106E+00 0.117E+00 0.129E+00 0.142E+00 0.156E+00
 0.171E+00 0.189E+00 0.207E+00 0.228E+00 0.251E+00 0.276E+00 0.304E+00 0.334E+00
 0.367E+00 0.404E+00 0.445E+00 0.489E+00 0.538E+00 0.592E+00 0.651E+00 0.716E+00
  0.157E+01  0.131E+01  0.105E+01  0.785E+00  0.524E+00  0.262E+00  0.000E+00
  0.602E+01  0.576E+01  0.550E+01  0.524E+01  0.497E+01  0.471E+01  0.445E+01
  0.419E+01  0.393E+01  0.367E+01  0.340E+01  0.314E+01  0.288E+01  0.262E+01
  0.236E+01  0.209E+01  0.183E+01
20080310 000000
'W0052N489 '  48.90  -5.20      99.9  21.63 206.4   0.00 270.0
  0.457E-05  0.445E-03  0.170E-01  0.281E+00  0.318E+01  0.144E+02  0.258E+02
  0.250E+02  0.260E+02  0.227E+02  0.191E+02  0.140E+02  0.793E+01  0.351E+01
  0.175E+01  0.117E+01  0.968E+00  0.717E+00  0.514E+00  0.383E+00  0.267E+00
  0.178E+00  0.121E+00  0.811E-01  0.528E-01  0.341E-01  0.218E-01  0.139E-01
  0.877E-02  0.558E-02  0.353E-02  0.219E-02  0.478E-05  0.519E-03  0.229E-01
  0.378E+00  0.264E+01  0.386E+01  0.211E+01  0.106E+01  0.255E+01  0.135E+02
  0.189E+02  0.154E+02  0.103E+02  0.629E+01  0.325E+01  0.187E+01  0.142E+01
  0.109E+01  0.757E+00  0.527E+00  0.369E+00  0.249E+00  0.165E+00  0.110E+00
  0.716E-01  0.462E-01  0.299E-01  0.192E-01  0.122E-01  0.781E-02  0.499E-02
  0.310E-02  0.515E-05  0.524E-03  0.172E-01  0.156E+00  0.428E+00  0.253E+00
  0.247E+00  0.312E+00  0.651E+00  0.347E+01  0.179E+02  0.209E+02  0.142E+02
  0.934E+01  0.563E+01  0.305E+01  0.194E+01  0.140E+01  0.959E+00  0.626E+00
  0.414E+00  0.276E+00  0.184E+00  0.123E+00  0.817E-01  0.534E-01  0.349E-01
  0.229E-01  0.148E-01  0.955E-02  0.614E-02  0.381E-02  0.339E-05  0.279E-03
  0.701E-02  0.454E-01  0.516E-01  0.218E-01  0.581E-01  0.186E+00  0.462E+00
  0.130E+01  0.564E+01  0.197E+02  0.186E+02  0.105E+02  0.704E+01  0.446E+01
  0.252E+01  0.163E+01  0.107E+01  0.677E+00  0.436E+00  0.286E+00  0.188E+00
  0.125E+00  0.841E-01  0.564E-01  0.375E-01  0.249E-01  0.163E-01  0.106E-01
  0.691E-02  0.429E-02  0.136E-05  0.806E-04  0.124E-02  0.302E-02  0.521E-02
  0.203E-01  0.532E-01  0.168E+00  0.535E+00  0.121E+01  0.290E+01  0.835E+01
  0.170E+02  0.105E+02  0.625E+01  0.457E+01  0.303E+01  0.187E+01  0.120E+01
  0.735E+00  0.452E+00  0.294E+00  0.194E+00  0.127E+00  0.842E-01  0.562E-01
  0.375E-01  0.251E-01  0.167E-01  0.110E-01  0.717E-02  0.445E-02  0.356E-07
  0.704E-06  0.818E-05  0.479E-03  0.520E-02  0.255E-01  0.575E-01  0.119E+00
  0.302E+00  0.920E+00  0.160E+01  0.304E+01  0.657E+01  0.994E+01  0.540E+01
  0.361E+01  0.280E+01  0.194E+01  0.128E+01  0.833E+00  0.510E+00  0.315E+00
  0.201E+00  0.130E+00  0.851E-01  0.557E-01  0.365E-01  0.240E-01  0.158E-01
  0.104E-01  0.684E-02  0.425E-02  0.107E-08  0.138E-06  0.703E-05  0.165E-03
  0.137E-02  0.705E-02  0.207E-01  0.379E-01  0.742E-01  0.331E+00  0.642E+00
  0.807E+00  0.150E+01  0.305E+01  0.418E+01  0.272E+01  0.217E+01  0.167E+01
  0.116E+01  0.807E+00  0.544E+00  0.347E+00  0.219E+00  0.138E+00  0.868E-01
  0.549E-01  0.352E-01  0.227E-01  0.146E-01  0.940E-02  0.610E-02  0.379E-02
  0.173E-08  0.180E-06  0.747E-05  0.107E-03  0.862E-03  0.336E-02  0.893E-02
  0.146E-01  0.166E-01  0.604E-01  0.178E+00  0.209E+00  0.254E+00  0.479E+00
  0.973E+00  0.143E+01  0.129E+01  0.115E+01  0.890E+00  0.628E+00  0.445E+00
  0.309E+00  0.209E+00  0.138E+00  0.884E-01  0.550E-01  0.342E-01  0.213E-01
  0.133E-01  0.836E-02  0.530E-02  0.329E-02  0.377E-08  0.408E-06  0.175E-04
  0.279E-03  0.236E-02  0.947E-02  0.230E-01  0.328E-01  0.267E-01  0.226E-01
  0.412E-01  0.617E-01  0.669E-01  0.918E-01  0.159E+00  0.269E+00  0.372E+00
  0.398E+00  0.412E+00  0.357E+00  0.274E+00  0.204E+00  0.145E+00  0.102E+00
  0.700E-01  0.467E-01  0.301E-01  0.189E-01  0.117E-01  0.716E-02  0.439E-02
  0.272E-02  0.743E-08  0.823E-06  0.360E-04  0.590E-03  0.506E-02  0.210E-01
  0.525E-01  0.762E-01  0.602E-01  0.414E-01  0.296E-01  0.263E-01  0.259E-01
  0.295E-01  0.416E-01  0.579E-01  0.752E-01  0.847E-01  0.859E-01  0.854E-01
  0.812E-01  0.758E-01  0.646E-01  0.500E-01  0.369E-01  0.264E-01  0.183E-01
  0.124E-01  0.807E-02  0.508E-02  0.309E-02  0.192E-02  0.982E-08  0.107E-05
  0.476E-04  0.778E-03  0.635E-02  0.255E-01  0.630E-01  0.887E-01  0.673E-01
  0.443E-01  0.299E-01  0.202E-01  0.146E-01  0.116E-01  0.113E-01  0.129E-01
  0.140E-01  0.141E-01  0.138E-01  0.136E-01  0.131E-01  0.122E-01  0.108E-01
  0.997E-02  0.939E-02  0.815E-02  0.651E-02  0.489E-02  0.353E-02  0.242E-02
  0.158E-02  0.981E-03  0.717E-08  0.780E-06  0.343E-04  0.540E-03  0.433E-02
  0.171E-01  0.405E-01  0.562E-01  0.421E-01  0.271E-01  0.172E-01  0.104E-01
  0.679E-02  0.457E-02  0.335E-02  0.259E-02  0.214E-02  0.174E-02  0.157E-02
  0.150E-02  0.140E-02  0.123E-02  0.100E-02  0.788E-03  0.637E-03  0.516E-03
  0.460E-03  0.441E-03  0.418E-03  0.362E-03  0.289E-03  0.180E-03  0.212E-08
  0.233E-06  0.103E-04  0.155E-03  0.121E-02  0.490E-02  0.105E-01  0.145E-01
  0.125E-01  0.823E-02  0.487E-02  0.255E-02  0.142E-02  0.872E-03  0.592E-03
  0.409E-03  0.251E-03  0.120E-03  0.804E-04  0.933E-04  0.102E-03  0.937E-04
  0.764E-04  0.569E-04  0.400E-04  0.266E-04  0.172E-04  0.110E-04  0.765E-05
  0.567E-05  0.462E-05  0.287E-05  0.511E-10  0.620E-08  0.254E-06  0.295E-05
  0.252E-04  0.109E-03  0.109E-03  0.188E-03  0.575E-03  0.425E-03  0.134E-03
  0.123E-03  0.127E-03  0.165E-03  0.143E-03  0.686E-04  0.235E-04  0.636E-05
  0.142E-05  0.947E-06  0.132E-05  0.200E-05  0.256E-05  0.259E-05  0.218E-05
  0.164E-05  0.113E-05  0.697E-06  0.382E-06  0.211E-06  0.119E-06  0.736E-07
  0.252E-09  0.240E-07  0.790E-06  0.768E-05  0.452E-04  0.122E-03  0.127E-03
  0.117E-03  0.106E-03  0.870E-04  0.817E-04  0.101E-03  0.156E-03  0.200E-03
  0.181E-03  0.104E-03  0.428E-04  0.981E-05  0.872E-06  0.245E-07  0.242E-08
  0.270E-08  0.304E-08  0.376E-08  0.538E-08  0.757E-08  0.860E-08  0.814E-08
  0.450E-08  0.250E-08  0.140E-08  0.867E-09  0.155E-08  0.143E-06  0.455E-05
  0.425E-04  0.230E-03  0.606E-03  0.704E-03  0.624E-03  0.532E-03  0.579E-03
  0.697E-03  0.889E-03  0.105E-02  0.104E-02  0.785E-03  0.473E-03  0.212E-03
  0.513E-04  0.514E-05  0.200E-06  0.381E-08  0.473E-10  0.129E-11  0.676E-12
  0.535E-12  0.430E-12  0.324E-12  0.292E-12  0.163E-12  0.920E-13  0.520E-13
  0.323E-13  0.375E-08  0.345E-06  0.110E-04  0.105E-03  0.579E-03  0.158E-02
  0.198E-02  0.180E-02  0.155E-02  0.165E-02  0.197E-02  0.237E-02  0.256E-02
  0.246E-02  0.184E-02  0.105E-02  0.431E-03  0.100E-03  0.111E-04  0.561E-06
  0.169E-07  0.389E-09  0.506E-11  0.129E-13  0.215E-15  0.424E-16  0.148E-16
  0.667E-17  0.256E-17  0.129E-17  0.693E-18  0.430E-18  0.461E-08  0.413E-06
  0.131E-04  0.137E-03  0.854E-03  0.274E-02  0.435E-02  0.459E-02  0.341E-02
  0.259E-02  0.226E-02  0.231E-02  0.239E-02  0.219E-02  0.169E-02  0.101E-02
  0.443E-03  0.115E-03  0.169E-04  0.171E-05  0.121E-06  0.561E-08  0.261E-09
  0.233E-10  0.489E-11  0.158E-11  0.599E-12  0.234E-12  0.122E-12  0.646E-13
  0.348E-13  0.216E-13  0.115E-07  0.110E-05  0.380E-04  0.488E-03  0.363E-02
  0.143E-01  0.276E-01  0.315E-01  0.229E-01  0.154E-01  0.108E-01  0.860E-02
  0.676E-02  0.528E-02  0.404E-02  0.267E-02  0.140E-02  0.494E-03  0.121E-03
  0.285E-04  0.692E-05  0.145E-05  0.275E-06  0.596E-07  0.191E-07  0.802E-08
  0.359E-08  0.159E-08  0.837E-09  0.449E-09  0.244E-09  0.151E-09  0.272E-07
  0.232E-05  0.724E-04  0.101E-02  0.810E-02  0.231E-01  0.413E-01  0.462E-01
  0.331E-01  0.224E-01  0.160E-01  0.132E-01  0.113E-01  0.106E-01  0.109E-01
  0.121E-01  0.120E-01  0.719E-02  0.302E-02  0.112E-02  0.355E-03  0.971E-04
  0.268E-04  0.792E-05  0.257E-05  0.976E-06  0.423E-06  0.191E-06  0.967E-07
  0.506E-07  0.270E-07  0.168E-07  0.121E-06  0.108E-04  0.380E-03  0.650E-02
  0.369E-01  0.468E-01  0.594E-01  0.697E-01  0.841E-01  0.617E-01  0.508E-01
  0.630E-01  0.935E-01  0.123E+00  0.145E+00  0.148E+00  0.115E+00  0.594E-01
  0.244E-01  0.104E-01  0.448E-02  0.181E-02  0.737E-03  0.331E-03  0.157E-03
  0.757E-04  0.392E-04  0.212E-04  0.115E-04  0.629E-05  0.342E-05  0.212E-05
  0.293E-06  0.360E-04  0.184E-02  0.389E-01  0.189E+00  0.270E+00  0.435E+00
  0.153E+01  0.262E+01  0.217E+01  0.177E+01  0.148E+01  0.114E+01  0.826E+00
  0.567E+00  0.395E+00  0.287E+00  0.182E+00  0.936E-01  0.468E-01  0.254E-01
  0.143E-01  0.789E-02  0.457E-02  0.281E-02  0.170E-02  0.103E-02  0.638E-03
  0.385E-03  0.226E-03  0.130E-03  0.808E-04  0.229E-05  0.262E-03  0.126E-01
  0.229E+00  0.186E+01  0.590E+01  0.162E+02  0.314E+02  0.216E+02  0.135E+02
  0.884E+01  0.491E+01  0.250E+01  0.134E+01  0.954E+00  0.694E+00  0.475E+00
  0.328E+00  0.220E+00  0.132E+00  0.796E-01  0.523E-01  0.337E-01  0.213E-01
  0.139E-01  0.901E-02  0.570E-02  0.359E-02  0.223E-02  0.136E-02  0.815E-03
  0.506E-03  0.387E-05  0.404E-03  0.157E-01  0.225E+00  0.205E+01  0.123E+02
  0.405E+02  0.530E+02  0.378E+02  0.289E+02  0.210E+02  0.127E+02  0.525E+01
  0.208E+01  0.120E+01  0.946E+00  0.696E+00  0.479E+00  0.355E+00  0.250E+00
  0.163E+00  0.109E+00  0.746E-01  0.491E-01  0.319E-01  0.207E-01  0.133E-01
  0.841E-02  0.529E-02  0.331E-02  0.205E-02  0.127E-02
20080310 030000
'W0052N489 '  48.90  -5.20      99.9  20.12 235.6   0.00 270.0
  0.575E-05  0.542E-03  0.194E-01  0.263E+00  0.252E+01  0.105E+02  0.270E+02
  0.504E+02  0.541E+02  0.414E+02  0.203E+02  0.107E+02  0.563E+01  0.374E+01
  0.323E+01  0.252E+01  0.180E+01  0.135E+01  0.935E+00  0.630E+00  0.427E+00
  0.285E+00  0.184E+00  0.118E+00  0.758E-01  0.482E-01  0.309E-01  0.199E-01
  0.128E-01  0.823E-02  0.533E-02  0.331E-02  0.536E-05  0.513E-03  0.202E-01
  0.340E+00  0.252E+01  0.363E+01  0.310E+01  0.116E+02  0.388E+02  0.497E+02
  0.266E+02  0.170E+02  0.994E+01  0.536E+01  0.396E+01  0.322E+01  0.219E+01
  0.147E+01  0.101E+01  0.667E+00  0.438E+00  0.291E+00  0.190E+00  0.123E+00
  0.799E-01  0.520E-01  0.338E-01  0.221E-01  0.144E-01  0.930E-02  0.604E-02
  0.375E-02  0.408E-05  0.377E-03  0.124E-01  0.154E+00  0.634E+00  0.695E+00
  0.869E+00  0.209E+01  0.186E+02  0.507E+02  0.327E+02  0.199E+02  0.134E+02
  0.807E+01  0.479E+01  0.358E+01  0.239E+01  0.150E+01  0.969E+00  0.636E+00
  0.415E+00  0.278E+00  0.186E+00  0.123E+00  0.814E-01  0.541E-01  0.358E-01
  0.237E-01  0.155E-01  0.101E-01  0.653E-02  0.405E-02  0.265E-05  0.213E-03
  0.546E-02  0.448E-01  0.833E-01  0.152E+00  0.640E+00  0.126E+01  0.452E+01
  0.258E+02  0.439E+02  0.221E+02  0.134E+02  0.984E+01  0.598E+01  0.375E+01
  0.250E+01  0.152E+01  0.940E+00  0.613E+00  0.401E+00  0.264E+00  0.177E+00
  0.119E+00  0.799E-01  0.536E-01  0.359E-01  0.239E-01  0.157E-01  0.102E-01
  0.661E-02  0.410E-02  0.114E-05  0.621E-04  0.970E-03  0.307E-02  0.648E-02
  0.573E-01  0.513E+00  0.148E+01  0.325E+01  0.927E+01  0.270E+02  0.260E+02
  0.110E+02  0.853E+01  0.621E+01  0.396E+01  0.259E+01  0.163E+01  0.960E+00
  0.607E+00  0.397E+00  0.258E+00  0.169E+00  0.112E+00  0.745E-01  0.497E-01
  0.333E-01  0.222E-01  0.146E-01  0.952E-02  0.618E-02  0.384E-02  0.388E-07
  0.114E-05  0.177E-04  0.563E-03  0.573E-02  0.291E-01  0.201E+00  0.107E+01
  0.227E+01  0.370E+01  0.833E+01  0.146E+02  0.981E+01  0.563E+01  0.465E+01
  0.340E+01  0.231E+01  0.157E+01  0.999E+00  0.617E+00  0.393E+00  0.251E+00
  0.160E+00  0.103E+00  0.668E-01  0.434E-01  0.285E-01  0.188E-01  0.123E-01
  0.806E-02  0.525E-02  0.326E-02  0.133E-08  0.153E-06  0.753E-05  0.173E-03
  0.125E-02  0.794E-02  0.446E-01  0.346E+00  0.116E+01  0.118E+01  0.168E+01
  0.309E+01  0.454E+01  0.318E+01  0.256E+01  0.227E+01  0.162E+01  0.115E+01
  0.814E+00  0.547E+00  0.356E+00  0.230E+00  0.144E+00  0.895E-01  0.561E-01
  0.354E-01  0.224E-01  0.144E-01  0.925E-02  0.599E-02  0.389E-02  0.242E-02
  0.171E-08  0.172E-06  0.687E-05  0.102E-03  0.829E-03  0.350E-02  0.127E-01
  0.556E-01  0.250E+00  0.313E+00  0.281E+00  0.448E+00  0.849E+00  0.118E+01
  0.114E+01  0.109E+01  0.961E+00  0.708E+00  0.517E+00  0.372E+00  0.258E+00
  0.175E+00  0.114E+00  0.711E-01  0.433E-01  0.263E-01  0.160E-01  0.976E-02
  0.598E-02  0.373E-02  0.235E-02  0.146E-02  0.371E-08  0.383E-06  0.156E-04
  0.246E-03  0.212E-02  0.837E-02  0.236E-01  0.391E-01  0.527E-01  0.765E-01
  0.688E-01  0.775E-01  0.136E+00  0.222E+00  0.313E+00  0.354E+00  0.349E+00
  0.316E+00  0.255E+00  0.197E+00  0.144E+00  0.102E+00  0.708E-01  0.473E-01
  0.301E-01  0.184E-01  0.109E-01  0.631E-02  0.359E-02  0.207E-02  0.119E-02
  0.741E-03  0.737E-08  0.775E-06  0.319E-04  0.513E-03  0.455E-02  0.186E-01
  0.537E-01  0.835E-01  0.706E-01  0.573E-01  0.419E-01  0.327E-01  0.361E-01
  0.472E-01  0.599E-01  0.726E-01  0.760E-01  0.742E-01  0.663E-01  0.555E-01
  0.453E-01  0.348E-01  0.257E-01  0.186E-01  0.129E-01  0.856E-02  0.535E-02
  0.311E-02  0.169E-02  0.884E-03  0.445E-03  0.276E-03  0.982E-08  0.102E-05
  0.426E-04  0.684E-03  0.581E-02  0.230E-01  0.652E-01  0.986E-01  0.778E-01
  0.568E-01  0.383E-01  0.235E-01  0.151E-01  0.126E-01  0.124E-01  0.122E-01
  0.113E-01  0.105E-01  0.933E-02  0.739E-02  0.526E-02  0.377E-02  0.286E-02
  0.223E-02  0.171E-02  0.127E-02  0.910E-03  0.599E-03  0.355E-03  0.186E-03
  0.867E-04  0.538E-04  0.720E-08  0.738E-06  0.305E-04  0.476E-03  0.401E-02
  0.157E-01  0.425E-01  0.622E-01  0.473E-01  0.321E-01  0.203E-01  0.114E-01
  0.644E-02  0.381E-02  0.259E-02  0.191E-02  0.141E-02  0.112E-02  0.873E-03
  0.613E-03  0.374E-03  0.206E-03  0.113E-03  0.627E-04  0.366E-04  0.234E-04
  0.165E-04  0.121E-04  0.885E-05  0.576E-05  0.316E-05  0.196E-05  0.213E-08
  0.219E-06  0.896E-05  0.140E-03  0.117E-02  0.482E-02  0.118E-01  0.160E-01
  0.125E-01  0.824E-02  0.462E-02  0.238E-02  0.132E-02  0.799E-03  0.490E-03
  0.261E-03  0.130E-03  0.753E-04  0.531E-04  0.353E-04  0.202E-04  0.105E-04
  0.516E-05  0.239E-05  0.100E-05  0.384E-06  0.145E-06  0.519E-07  0.283E-07
  0.158E-07  0.888E-08  0.551E-08  0.631E-10  0.710E-08  0.286E-06  0.369E-05
  0.323E-04  0.235E-03  0.185E-03  0.215E-03  0.308E-03  0.197E-03  0.122E-03
  0.957E-04  0.891E-04  0.120E-03  0.960E-04  0.317E-04  0.656E-05  0.156E-05
  0.783E-06  0.518E-06  0.309E-06  0.165E-06  0.848E-07  0.423E-07  0.189E-07
  0.737E-08  0.274E-08  0.838E-09  0.423E-09  0.220E-09  0.117E-09  0.727E-10
  0.291E-09  0.282E-07  0.932E-06  0.947E-05  0.533E-04  0.144E-03  0.168E-03
  0.145E-03  0.110E-03  0.871E-04  0.737E-04  0.683E-04  0.879E-04  0.118E-03
  0.899E-04  0.299E-04  0.510E-05  0.426E-06  0.150E-07  0.979E-09  0.333E-09
  0.110E-09  0.395E-10  0.162E-10  0.678E-11  0.296E-11  0.136E-11  0.512E-12
  0.230E-12  0.110E-12  0.549E-13  0.341E-13  0.151E-08  0.140E-06  0.453E-05
  0.468E-04  0.249E-03  0.632E-03  0.838E-03  0.750E-03  0.613E-03  0.702E-03
  0.877E-03  0.961E-03  0.909E-03  0.718E-03  0.388E-03  0.123E-03  0.193E-04
  0.157E-05  0.514E-07  0.460E-09  0.715E-11  0.375E-13  0.371E-14  0.852E-15
  0.840E-15  0.160E-15  0.265E-16  0.773E-17  0.458E-17  0.141E-17  0.552E-18
  0.343E-18  0.350E-08  0.318E-06  0.102E-04  0.111E-03  0.604E-03  0.161E-02
  0.232E-02  0.215E-02  0.184E-02  0.232E-02  0.308E-02  0.335E-02  0.306E-02
  0.226E-02  0.119E-02  0.348E-03  0.465E-04  0.293E-05  0.739E-07  0.933E-09
  0.124E-10  0.164E-11  0.143E-11  0.124E-11  0.105E-11  0.895E-12  0.738E-12
  0.579E-12  0.338E-12  0.196E-12  0.113E-12  0.704E-13  0.414E-08  0.362E-06
  0.114E-04  0.130E-03  0.801E-03  0.241E-02  0.451E-02  0.516E-02  0.455E-02
  0.564E-02  0.734E-02  0.754E-02  0.640E-02  0.428E-02  0.202E-02  0.498E-03
  0.480E-04  0.277E-05  0.103E-06  0.229E-07  0.234E-07  0.250E-07  0.268E-07
  0.261E-07  0.227E-07  0.174E-07  0.119E-07  0.727E-08  0.409E-08  0.231E-08
  0.131E-08  0.811E-09  0.100E-07  0.909E-06  0.305E-04  0.406E-03  0.305E-02
  0.111E-01  0.263E-01  0.326E-01  0.254E-01  0.249E-01  0.285E-01  0.289E-01
  0.245E-01  0.159E-01  0.708E-02  0.163E-02  0.146E-03  0.159E-04  0.959E-05
  0.941E-05  0.854E-05  0.699E-05  0.542E-05  0.389E-05  0.259E-05  0.161E-05
  0.956E-06  0.536E-06  0.301E-06  0.170E-06  0.969E-07  0.602E-07  0.288E-07
  0.256E-05  0.831E-04  0.126E-02  0.925E-02  0.187E-01  0.374E-01  0.448E-01
  0.334E-01  0.297E-01  0.318E-01  0.322E-01  0.274E-01  0.182E-01  0.890E-02
  0.310E-02  0.101E-02  0.583E-03  0.411E-03  0.305E-03  0.226E-03  0.159E-03
  0.114E-03  0.802E-04  0.561E-04  0.393E-04  0.279E-04  0.203E-04  0.152E-04
  0.113E-04  0.826E-05  0.513E-05  0.127E-06  0.124E-04  0.509E-03  0.112E-01
  0.692E-01  0.623E-01  0.626E-01  0.634E-01  0.404E-01  0.237E-01  0.252E-01
  0.393E-01  0.566E-01  0.711E-01  0.815E-01  0.622E-01  0.313E-01  0.166E-01
  0.103E-01  0.735E-02  0.536E-02  0.395E-02  0.316E-02  0.249E-02  0.202E-02
  0.165E-02  0.130E-02  0.975E-03  0.701E-03  0.478E-03  0.310E-03  0.193E-03
  0.245E-06  0.315E-04  0.202E-02  0.567E-01  0.357E+00  0.534E+00  0.104E+01
  0.241E+01  0.271E+01  0.163E+01  0.109E+01  0.942E+00  0.851E+00  0.667E+00
  0.498E+00  0.337E+00  0.217E+00  0.143E+00  0.948E-01  0.715E-01  0.536E-01
  0.401E-01  0.311E-01  0.231E-01  0.167E-01  0.119E-01  0.822E-02  0.550E-02
  0.359E-02  0.230E-02  0.143E-02  0.888E-03  0.186E-05  0.219E-03  0.112E-01
  0.209E+00  0.198E+01  0.672E+01  0.209E+02  0.386E+02  0.248E+02  0.132E+02
  0.603E+01  0.273E+01  0.176E+01  0.150E+01  0.120E+01  0.832E+00  0.613E+00
  0.456E+00  0.319E+00  0.242E+00  0.178E+00  0.126E+00  0.891E-01  0.618E-01
  0.415E-01  0.277E-01  0.183E-01  0.118E-01  0.751E-02  0.476E-02  0.299E-02
  0.186E-02  0.415E-05  0.436E-03  0.173E-01  0.211E+00  0.176E+01  0.937E+01
  0.434E+02  0.696E+02  0.514E+02  0.360E+02  0.177E+02  0.603E+01  0.277E+01
  0.217E+01  0.199E+01  0.156E+01  0.125E+01  0.988E+00  0.677E+00  0.477E+00
  0.337E+00  0.229E+00  0.152E+00  0.100E+00  0.649E-01  0.415E-01  0.266E-01
  0.170E-01  0.108E-01  0.687E-02  0.438E-02  0.272E-02
20080310 060000
'W0052N489 '  48.90  -5.20      99.9  18.49 264.9   0.00 270.0
  0.258E-04  0.204E-02  0.581E-01  0.595E+00  0.370E+01  0.142E+02  0.642E+02
  0.104E+03  0.902E+02  0.509E+02  0.264E+02  0.147E+02  0.924E+01  0.726E+01
  0.521E+01  0.343E+01  0.225E+01  0.147E+01  0.940E+00  0.615E+00  0.403E+00
  0.261E+00  0.171E+00  0.112E+00  0.737E-01  0.486E-01  0.322E-01  0.213E-01
  0.140E-01  0.916E-02  0.598E-02  0.372E-02  0.254E-04  0.226E-02  0.760E-01
  0.100E+01  0.505E+01  0.750E+01  0.145E+02  0.526E+02  0.837E+02  0.422E+02
  0.239E+02  0.170E+02  0.105E+02  0.720E+01  0.524E+01  0.336E+01  0.208E+01
  0.136E+01  0.887E+00  0.583E+00  0.390E+00  0.259E+00  0.171E+00  0.114E+00
  0.759E-01  0.504E-01  0.334E-01  0.221E-01  0.144E-01  0.936E-02  0.607E-02
  0.377E-02  0.150E-04  0.108E-02  0.319E-01  0.484E+00  0.223E+01  0.337E+01
  0.364E+01  0.115E+02  0.463E+02  0.398E+02  0.204E+02  0.147E+02  0.106E+02
  0.699E+01  0.498E+01  0.325E+01  0.200E+01  0.129E+01  0.851E+00  0.562E+00
  0.375E+00  0.251E+00  0.167E+00  0.111E+00  0.744E-01  0.493E-01  0.325E-01
  0.214E-01  0.138E-01  0.893E-02  0.575E-02  0.357E-02  0.778E-05  0.456E-03
  0.886E-02  0.942E-01  0.469E+00  0.161E+01  0.234E+01  0.318E+01  0.130E+02
  0.333E+02  0.201E+02  0.116E+02  0.934E+01  0.675E+01  0.441E+01  0.298E+01
  0.190E+01  0.120E+01  0.786E+00  0.523E+00  0.344E+00  0.228E+00  0.151E+00
  0.999E-01  0.661E-01  0.437E-01  0.288E-01  0.189E-01  0.122E-01  0.788E-02
  0.506E-02  0.314E-02  0.216E-05  0.980E-04  0.125E-02  0.483E-02  0.365E-01
  0.472E+00  0.177E+01  0.266E+01  0.535E+01  0.138E+02  0.218E+02  0.939E+01
  0.680E+01  0.543E+01  0.362E+01  0.239E+01  0.160E+01  0.102E+01  0.665E+00
  0.441E+00  0.287E+00  0.186E+00  0.121E+00  0.791E-01  0.516E-01  0.339E-01
  0.222E-01  0.145E-01  0.945E-02  0.613E-02  0.396E-02  0.246E-02  0.369E-07
  0.987E-06  0.248E-04  0.737E-03  0.829E-02  0.703E-01  0.570E+00  0.181E+01
  0.267E+01  0.423E+01  0.933E+01  0.899E+01  0.459E+01  0.355E+01  0.268E+01
  0.182E+01  0.124E+01  0.830E+00  0.541E+00  0.352E+00  0.225E+00  0.141E+00
  0.883E-01  0.555E-01  0.350E-01  0.222E-01  0.143E-01  0.920E-02  0.593E-02
  0.384E-02  0.248E-02  0.154E-02  0.163E-08  0.208E-06  0.105E-04  0.221E-03
  0.148E-02  0.956E-02  0.799E-01  0.428E+00  0.763E+00  0.992E+00  0.189E+01
  0.299E+01  0.272E+01  0.177E+01  0.154E+01  0.115E+01  0.801E+00  0.576E+00
  0.396E+00  0.260E+00  0.168E+00  0.104E+00  0.632E-01  0.379E-01  0.227E-01
  0.136E-01  0.817E-02  0.498E-02  0.305E-02  0.190E-02  0.120E-02  0.743E-03
  0.214E-08  0.205E-06  0.778E-05  0.120E-03  0.944E-03  0.374E-02  0.156E-01
  0.606E-01  0.883E-01  0.101E+00  0.165E+00  0.277E+00  0.426E+00  0.419E+00
  0.437E+00  0.441E+00  0.358E+00  0.275E+00  0.202E+00  0.140E+00  0.930E-01
  0.595E-01  0.362E-01  0.213E-01  0.121E-01  0.663E-02  0.360E-02  0.194E-02
  0.105E-02  0.585E-03  0.331E-03  0.206E-03  0.524E-08  0.507E-06  0.197E-04
  0.308E-03  0.241E-02  0.860E-02  0.325E-01  0.589E-01  0.588E-01  0.468E-01
  0.354E-01  0.320E-01  0.365E-01  0.413E-01  0.451E-01  0.503E-01  0.560E-01
  0.563E-01  0.477E-01  0.361E-01  0.257E-01  0.172E-01  0.110E-01  0.658E-02
  0.366E-02  0.190E-02  0.918E-03  0.419E-03  0.184E-03  0.806E-04  0.357E-04
  0.222E-04  0.106E-07  0.105E-05  0.414E-04  0.662E-03  0.520E-02  0.189E-01
  0.730E-01  0.127E+00  0.108E+00  0.739E-01  0.414E-01  0.227E-01  0.156E-01
  0.117E-01  0.906E-02  0.723E-02  0.612E-02  0.545E-02  0.408E-02  0.257E-02
  0.172E-02  0.118E-02  0.807E-03  0.517E-03  0.303E-03  0.161E-03  0.758E-04
  0.311E-04  0.113E-04  0.371E-05  0.115E-05  0.714E-06  0.137E-07  0.135E-05
  0.539E-04  0.873E-03  0.670E-02  0.237E-01  0.882E-01  0.147E+00  0.115E+00
  0.738E-01  0.398E-01  0.205E-01  0.113E-01  0.624E-02  0.316E-02  0.171E-02
  0.106E-02  0.700E-03  0.402E-03  0.162E-03  0.577E-04  0.213E-04  0.854E-05
  0.388E-05  0.196E-05  0.102E-05  0.502E-06  0.216E-06  0.802E-07  0.256E-07
  0.783E-08  0.486E-08  0.972E-08  0.939E-06  0.374E-04  0.603E-03  0.460E-02
  0.159E-01  0.561E-01  0.904E-01  0.668E-01  0.417E-01  0.221E-01  0.109E-01
  0.531E-02  0.234E-02  0.932E-03  0.381E-03  0.170E-03  0.807E-04  0.348E-04
  0.945E-05  0.234E-05  0.606E-06  0.154E-06  0.367E-07  0.825E-08  0.186E-08
  0.459E-09  0.122E-09  0.605E-10  0.308E-10  0.161E-10  0.997E-11  0.255E-08
  0.248E-06  0.984E-05  0.152E-03  0.120E-02  0.439E-02  0.133E-01  0.203E-01
  0.157E-01  0.107E-01  0.619E-02  0.310E-02  0.145E-02  0.617E-03  0.231E-03
  0.932E-04  0.363E-04  0.112E-04  0.225E-05  0.280E-06  0.341E-07  0.577E-08
  0.105E-08  0.177E-09  0.243E-10  0.281E-11  0.358E-12  0.376E-13  0.161E-13
  0.819E-14  0.435E-14  0.270E-14  0.671E-10  0.682E-08  0.280E-06  0.414E-05
  0.312E-04  0.102E-03  0.197E-03  0.379E-03  0.308E-03  0.245E-03  0.207E-03
  0.140E-03  0.101E-03  0.918E-04  0.543E-04  0.148E-04  0.303E-05  0.533E-06
  0.492E-07  0.411E-08  0.237E-09  0.121E-10  0.780E-12  0.557E-13  0.388E-14
  0.430E-15  0.533E-16  0.689E-17  0.168E-17  0.386E-18  0.109E-18  0.679E-19
  0.262E-09  0.254E-07  0.863E-06  0.962E-05  0.538E-04  0.141E-03  0.192E-03
  0.201E-03  0.198E-03  0.222E-03  0.266E-03  0.259E-03  0.224E-03  0.144E-03
  0.523E-04  0.937E-05  0.117E-05  0.666E-07  0.162E-08  0.378E-10  0.220E-11
  0.398E-12  0.326E-12  0.227E-12  0.162E-12  0.131E-12  0.112E-12  0.972E-13
  0.567E-13  0.328E-13  0.190E-13  0.118E-13  0.127E-08  0.114E-06  0.371E-05
  0.439E-04  0.239E-03  0.566E-03  0.951E-03  0.126E-02  0.211E-02  0.402E-02
  0.621E-02  0.707E-02  0.550E-02  0.254E-02  0.597E-03  0.688E-04  0.327E-05
  0.161E-06  0.325E-08  0.125E-08  0.168E-08  0.247E-08  0.377E-08  0.553E-08
  0.653E-08  0.616E-08  0.493E-08  0.333E-08  0.189E-08  0.107E-08  0.605E-09
  0.376E-09  0.292E-08  0.252E-06  0.804E-05  0.998E-04  0.561E-03  0.139E-02
  0.263E-02  0.399E-02  0.751E-02  0.145E-01  0.225E-01  0.251E-01  0.192E-01
  0.897E-02  0.226E-02  0.278E-03  0.119E-04  0.104E-05  0.129E-05  0.200E-05
  0.278E-05  0.311E-05  0.285E-05  0.227E-05  0.161E-05  0.102E-05  0.618E-06
  0.347E-06  0.195E-06  0.110E-06  0.621E-07  0.385E-07  0.404E-08  0.330E-06
  0.104E-04  0.133E-03  0.828E-03  0.217E-02  0.572E-02  0.123E-01  0.221E-01
  0.389E-01  0.523E-01  0.511E-01  0.375E-01  0.175E-01  0.447E-02  0.601E-03
  0.104E-03  0.118E-03  0.134E-03  0.125E-03  0.106E-03  0.836E-04  0.614E-04
  0.432E-04  0.294E-04  0.193E-04  0.131E-04  0.901E-05  0.655E-05  0.502E-05
  0.386E-05  0.240E-05  0.138E-07  0.103E-05  0.321E-04  0.453E-03  0.327E-02
  0.972E-02  0.292E-01  0.611E-01  0.900E-01  0.145E+00  0.185E+00  0.160E+00
  0.106E+00  0.468E-01  0.126E-01  0.315E-02  0.206E-02  0.209E-02  0.200E-02
  0.170E-02  0.142E-02  0.119E-02  0.101E-02  0.878E-03  0.793E-03  0.745E-03
  0.692E-03  0.588E-03  0.458E-03  0.332E-03  0.223E-03  0.139E-03  0.136E-06
  0.114E-04  0.333E-03  0.311E-02  0.123E-01  0.173E-01  0.398E-01  0.765E-01
  0.967E-01  0.143E+00  0.168E+00  0.138E+00  0.945E-01  0.534E-01  0.289E-01
  0.231E-01  0.237E-01  0.237E-01  0.235E-01  0.215E-01  0.204E-01  0.193E-01
  0.179E-01  0.157E-01  0.125E-01  0.933E-02  0.668E-02  0.458E-02  0.302E-02
  0.194E-02  0.120E-02  0.748E-03  0.755E-06  0.805E-04  0.324E-02  0.482E-01
  0.136E+00  0.981E-01  0.748E-01  0.621E-01  0.498E-01  0.639E-01  0.101E+00
  0.139E+00  0.186E+00  0.241E+00  0.252E+00  0.238E+00  0.224E+00  0.204E+00
  0.186E+00  0.159E+00  0.132E+00  0.102E+00  0.744E-01  0.529E-01  0.367E-01
  0.248E-01  0.164E-01  0.107E-01  0.674E-02  0.423E-02  0.263E-02  0.164E-02
  0.124E-05  0.211E-03  0.124E-01  0.268E+00  0.101E+01  0.172E+01  0.261E+01
  0.342E+01  0.290E+01  0.144E+01  0.125E+01  0.149E+01  0.152E+01  0.145E+01
  0.132E+01  0.115E+01  0.919E+00  0.746E+00  0.583E+00  0.422E+00  0.300E+00
  0.208E+00  0.140E+00  0.927E-01  0.607E-01  0.390E-01  0.248E-01  0.157E-01
  0.990E-02  0.626E-02  0.398E-02  0.247E-02  0.306E-05  0.378E-03  0.213E-01
  0.530E+00  0.406E+01  0.166E+02  0.379E+02  0.503E+02  0.293E+02  0.122E+02
  0.583E+01  0.427E+01  0.413E+01  0.381E+01  0.309E+01  0.258E+01  0.186E+01
  0.128E+01  0.902E+00  0.618E+00  0.411E+00  0.269E+00  0.173E+00  0.109E+00
  0.692E-01  0.441E-01  0.281E-01  0.181E-01  0.116E-01  0.751E-02  0.486E-02
  0.302E-02  0.116E-04  0.811E-03  0.257E-01  0.375E+00  0.311E+01  0.220E+02
  0.813E+02  0.968E+02  0.665E+02  0.388E+02  0.172E+02  0.878E+01  0.705E+01
  0.636E+01  0.455E+01  0.326E+01  0.228E+01  0.150E+01  0.996E+00  0.662E+00
  0.424E+00  0.269E+00  0.172E+00  0.110E+00  0.710E-01  0.462E-01  0.302E-01
  0.198E-01  0.129E-01  0.845E-02  0.553E-02  0.343E-02
20080310 090000
'W0052N489 '  48.90  -5.20      99.9  21.18 267.4   0.00 270.0
  0.936E-03  0.287E-01  0.368E+00  0.258E+01  0.135E+02  0.540E+02  0.165E+03
  0.160E+03  0.919E+02  0.548E+02  0.327E+02  0.195E+02  0.138E+02  0.913E+01
  0.563E+01  0.355E+01  0.227E+01  0.146E+01  0.969E+00  0.643E+00  0.425E+00
  0.283E+00  0.190E+00  0.127E+00  0.854E-01  0.571E-01  0.380E-01  0.251E-01
  0.164E-01  0.107E-01  0.693E-02  0.430E-02  0.620E-03  0.294E-01  0.618E+00
  0.517E+01  0.193E+02  0.278E+02  0.613E+02  0.105E+03  0.711E+02  0.366E+02
  0.256E+02  0.183E+02  0.121E+02  0.846E+01  0.545E+01  0.341E+01  0.223E+01
  0.147E+01  0.972E+00  0.650E+00  0.434E+00  0.289E+00  0.194E+00  0.129E+00
  0.859E-01  0.570E-01  0.377E-01  0.248E-01  0.161E-01  0.105E-01  0.675E-02
  0.419E-02  0.324E-03  0.154E-01  0.318E+00  0.324E+01  0.106E+02  0.986E+01
  0.996E+01  0.209E+02  0.448E+02  0.251E+02  0.180E+02  0.144E+02  0.104E+02
  0.730E+01  0.514E+01  0.331E+01  0.219E+01  0.147E+01  0.983E+00  0.654E+00
  0.433E+00  0.285E+00  0.187E+00  0.123E+00  0.811E-01  0.532E-01  0.349E-01
  0.228E-01  0.148E-01  0.956E-02  0.617E-02  0.383E-02  0.173E-03  0.663E-02
  0.782E-01  0.658E+00  0.246E+01  0.355E+01  0.326E+01  0.464E+01  0.151E+02
  0.222E+02  0.125E+02  0.997E+01  0.835E+01  0.595E+01  0.418E+01  0.290E+01
  0.195E+01  0.133E+01  0.898E+00  0.594E+00  0.391E+00  0.256E+00  0.167E+00
  0.108E+00  0.706E-01  0.459E-01  0.299E-01  0.195E-01  0.126E-01  0.814E-02
  0.526E-02  0.327E-02  0.381E-04  0.126E-02  0.817E-02  0.265E-01  0.142E+00
  0.744E+00  0.184E+01  0.305E+01  0.581E+01  0.140E+02  0.143E+02  0.744E+01
  0.573E+01  0.402E+01  0.278E+01  0.197E+01  0.138E+01  0.953E+00  0.660E+00
  0.445E+00  0.295E+00  0.194E+00  0.127E+00  0.825E-01  0.536E-01  0.348E-01
  0.225E-01  0.146E-01  0.942E-02  0.608E-02  0.392E-02  0.243E-02  0.541E-06
  0.126E-04  0.561E-04  0.510E-03  0.857E-02  0.634E-01  0.496E+00  0.157E+01
  0.225E+01  0.392E+01  0.814E+01  0.599E+01  0.354E+01  0.270E+01  0.182E+01
  0.122E+01  0.853E+00  0.585E+00  0.399E+00  0.271E+00  0.180E+00  0.118E+00
  0.773E-01  0.501E-01  0.324E-01  0.208E-01  0.133E-01  0.856E-02  0.544E-02
  0.348E-02  0.222E-02  0.138E-02  0.144E-07  0.843E-06  0.246E-04  0.373E-03
  0.211E-02  0.100E-01  0.505E-01  0.236E+00  0.433E+00  0.706E+00  0.140E+01
  0.201E+01  0.143E+01  0.988E+00  0.839E+00  0.596E+00  0.423E+00  0.294E+00
  0.196E+00  0.129E+00  0.847E-01  0.551E-01  0.357E-01  0.229E-01  0.145E-01
  0.913E-02  0.572E-02  0.356E-02  0.219E-02  0.136E-02  0.836E-03  0.519E-03
  0.207E-07  0.129E-05  0.341E-04  0.383E-03  0.219E-02  0.830E-02  0.249E-01
  0.486E-01  0.517E-01  0.563E-01  0.851E-01  0.125E+00  0.145E+00  0.118E+00
  0.128E+00  0.122E+00  0.972E-01  0.723E-01  0.492E-01  0.320E-01  0.204E-01
  0.127E-01  0.783E-02  0.484E-02  0.297E-02  0.180E-02  0.108E-02  0.642E-03
  0.373E-03  0.217E-03  0.125E-03  0.775E-04  0.681E-07  0.401E-05  0.106E-03
  0.121E-02  0.663E-02  0.268E-01  0.690E-01  0.914E-01  0.755E-01  0.486E-01
  0.306E-01  0.236E-01  0.191E-01  0.148E-01  0.113E-01  0.871E-02  0.630E-02
  0.443E-02  0.298E-02  0.196E-02  0.122E-02  0.727E-03  0.418E-03  0.234E-03
  0.129E-03  0.707E-04  0.392E-04  0.215E-04  0.115E-04  0.611E-05  0.316E-05
  0.197E-05  0.146E-06  0.867E-05  0.232E-03  0.272E-02  0.149E-01  0.615E-01
  0.155E+00  0.196E+00  0.151E+00  0.866E-01  0.477E-01  0.309E-01  0.211E-01
  0.136E-01  0.788E-02  0.427E-02  0.189E-02  0.599E-03  0.158E-03  0.475E-04
  0.190E-04  0.959E-05  0.502E-05  0.261E-05  0.134E-05  0.682E-06  0.350E-06
  0.180E-06  0.959E-07  0.515E-07  0.279E-07  0.173E-07  0.182E-06  0.108E-04
  0.295E-03  0.356E-02  0.186E-01  0.747E-01  0.184E+00  0.224E+00  0.160E+00
  0.878E-01  0.459E-01  0.278E-01  0.178E-01  0.105E-01  0.541E-02  0.272E-02
  0.112E-02  0.306E-03  0.500E-04  0.544E-05  0.440E-06  0.124E-06  0.570E-07
  0.266E-07  0.123E-07  0.561E-08  0.261E-08  0.121E-08  0.660E-09  0.363E-09
  0.201E-09  0.125E-09  0.122E-06  0.726E-05  0.200E-03  0.240E-02  0.124E-01
  0.474E-01  0.114E+00  0.138E+00  0.944E-01  0.522E-01  0.261E-01  0.141E-01
  0.767E-02  0.350E-02  0.153E-02  0.633E-03  0.208E-03  0.480E-04  0.598E-05
  0.518E-06  0.220E-07  0.167E-09  0.307E-10  0.878E-11  0.296E-11  0.103E-11
  0.386E-12  0.140E-12  0.756E-13  0.414E-13  0.229E-13  0.142E-13  0.225E-07
  0.138E-05  0.387E-04  0.468E-03  0.241E-02  0.825E-02  0.233E-01  0.328E-01
  0.250E-01  0.162E-01  0.832E-02  0.353E-02  0.117E-02  0.323E-03  0.988E-04
  0.334E-04  0.107E-04  0.201E-05  0.174E-06  0.394E-08  0.790E-10  0.151E-10
  0.184E-12  0.104E-13  0.145E-14  0.873E-15  0.886E-15  0.589E-15  0.137E-15
  0.288E-16  0.107E-15  0.664E-16  0.776E-10  0.704E-08  0.256E-06  0.387E-05
  0.333E-04  0.110E-03  0.386E-03  0.452E-03  0.607E-03  0.805E-03  0.435E-03
  0.160E-03  0.914E-04  0.623E-04  0.343E-04  0.993E-05  0.139E-05  0.785E-07
  0.185E-08  0.371E-10  0.442E-12  0.515E-13  0.164E-13  0.708E-14  0.388E-14
  0.286E-14  0.219E-14  0.142E-14  0.780E-15  0.436E-15  0.252E-15  0.157E-15
  0.394E-09  0.300E-07  0.921E-06  0.118E-04  0.616E-04  0.141E-03  0.318E-03
  0.509E-03  0.721E-03  0.135E-02  0.175E-02  0.127E-02  0.704E-03  0.231E-03
  0.454E-04  0.537E-05  0.456E-06  0.180E-07  0.122E-08  0.395E-09  0.493E-09
  0.899E-09  0.133E-08  0.139E-08  0.107E-08  0.651E-09  0.346E-09  0.150E-09
  0.826E-10  0.458E-10  0.255E-10  0.158E-10  0.284E-08  0.185E-06  0.506E-05
  0.641E-04  0.349E-03  0.802E-03  0.228E-02  0.512E-02  0.115E-01  0.241E-01
  0.316E-01  0.252E-01  0.135E-01  0.439E-02  0.798E-03  0.694E-04  0.178E-05
  0.108E-05  0.165E-05  0.219E-05  0.220E-05  0.180E-05  0.124E-05  0.740E-06
  0.392E-06  0.187E-06  0.862E-07  0.372E-07  0.205E-07  0.113E-07  0.629E-08
  0.391E-08  0.938E-08  0.534E-06  0.131E-04  0.164E-03  0.907E-03  0.215E-02
  0.649E-02  0.154E-01  0.348E-01  0.699E-01  0.935E-01  0.788E-01  0.436E-01
  0.149E-01  0.301E-02  0.419E-03  0.144E-03  0.144E-03  0.129E-03  0.101E-03
  0.713E-04  0.465E-04  0.282E-04  0.162E-04  0.917E-05  0.517E-05  0.305E-05
  0.192E-05  0.137E-05  0.960E-06  0.618E-06  0.384E-06  0.363E-07  0.174E-05
  0.370E-04  0.408E-03  0.223E-02  0.574E-02  0.155E-01  0.297E-01  0.518E-01
  0.858E-01  0.107E+00  0.922E-01  0.545E-01  0.219E-01  0.687E-02  0.303E-02
  0.249E-02  0.225E-02  0.180E-02  0.138E-02  0.105E-02  0.813E-03  0.648E-03
  0.558E-03  0.517E-03  0.459E-03  0.376E-03  0.279E-03  0.186E-03  0.112E-03
  0.605E-04  0.376E-04  0.197E-06  0.808E-05  0.168E-03  0.189E-02  0.106E-01
  0.289E-01  0.779E-01  0.134E+00  0.193E+00  0.256E+00  0.248E+00  0.190E+00
  0.112E+00  0.573E-01  0.338E-01  0.274E-01  0.272E-01  0.261E-01  0.232E-01
  0.213E-01  0.203E-01  0.193E-01  0.167E-01  0.131E-01  0.970E-02  0.675E-02
  0.444E-02  0.277E-02  0.163E-02  0.931E-03  0.513E-03  0.319E-03  0.315E-05
  0.145E-03  0.217E-02  0.125E-01  0.301E-01  0.465E-01  0.106E+00  0.172E+00
  0.228E+00  0.277E+00  0.261E+00  0.240E+00  0.211E+00  0.191E+00  0.199E+00
  0.214E+00  0.222E+00  0.219E+00  0.201E+00  0.168E+00  0.128E+00  0.930E-01
  0.657E-01  0.448E-01  0.296E-01  0.189E-01  0.117E-01  0.716E-02  0.429E-02
  0.258E-02  0.155E-02  0.964E-03  0.210E-04  0.127E-02  0.283E-01  0.154E+00
  0.237E+00  0.201E+00  0.196E+00  0.185E+00  0.235E+00  0.347E+00  0.514E+00
  0.721E+00  0.954E+00  0.116E+01  0.123E+01  0.113E+01  0.962E+00  0.746E+00
  0.547E+00  0.393E+00  0.273E+00  0.185E+00  0.122E+00  0.786E-01  0.496E-01
  0.311E-01  0.194E-01  0.122E-01  0.762E-02  0.482E-02  0.307E-02  0.190E-02
  0.453E-04  0.435E-02  0.139E+00  0.105E+01  0.265E+01  0.397E+01  0.590E+01
  0.577E+01  0.419E+01  0.327E+01  0.391E+01  0.448E+01  0.437E+01  0.423E+01
  0.360E+01  0.260E+01  0.186E+01  0.134E+01  0.920E+00  0.619E+00  0.405E+00
  0.256E+00  0.161E+00  0.102E+00  0.645E-01  0.410E-01  0.263E-01  0.170E-01
  0.110E-01  0.711E-02  0.463E-02  0.287E-02  0.118E-03  0.674E-02  0.197E+00
  0.279E+01  0.148E+02  0.410E+02  0.671E+02  0.617E+02  0.347E+02  0.173E+02
  0.125E+02  0.116E+02  0.958E+01  0.716E+01  0.526E+01  0.363E+01  0.244E+01
  0.163E+01  0.106E+01  0.674E+00  0.428E+00  0.273E+00  0.174E+00  0.113E+00
  0.733E-01  0.479E-01  0.314E-01  0.207E-01  0.136E-01  0.891E-02  0.583E-02
  0.362E-02  0.767E-03  0.155E-01  0.189E+00  0.188E+01  0.149E+02  0.757E+02
  0.142E+03  0.123E+03  0.844E+02  0.490E+02  0.245E+02  0.165E+02  0.130E+02
  0.902E+01  0.589E+01  0.386E+01  0.242E+01  0.154E+01  0.100E+01  0.650E+00
  0.422E+00  0.277E+00  0.182E+00  0.120E+00  0.802E-01  0.534E-01  0.355E-01
  0.236E-01  0.155E-01  0.102E-01  0.661E-02  0.410E-02
20080310 120000
'W0052N489 '  48.90  -5.20      99.9  23.56 269.8   0.00 270.0
  0.547E-01  0.718E+00  0.542E+01  0.242E+02  0.690E+02  0.187E+03  0.261E+03
  0.162E+03  0.967E+02  0.596E+02  0.367E+02  0.226E+02  0.150E+02  0.904E+01
  0.564E+01  0.363E+01  0.236E+01  0.155E+01  0.104E+01  0.694E+00  0.467E+00
  0.316E+00  0.213E+00  0.144E+00  0.964E-01  0.642E-01  0.425E-01  0.280E-01
  0.182E-01  0.118E-01  0.757E-02  0.470E-02  0.319E-01  0.575E+00  0.570E+01
  0.313E+02  0.606E+02  0.828E+02  0.112E+03  0.120E+03  0.606E+02  0.382E+02
  0.289E+02  0.201E+02  0.137E+02  0.916E+01  0.575E+01  0.371E+01  0.246E+01
  0.162E+01  0.108E+01  0.719E+00  0.477E+00  0.318E+00  0.212E+00  0.141E+00
  0.937E-01  0.620E-01  0.409E-01  0.269E-01  0.175E-01  0.113E-01  0.729E-02
  0.453E-02  0.125E-01  0.231E+00  0.249E+01  0.151E+02  0.243E+02  0.200E+02
  0.188E+02  0.325E+02  0.388E+02  0.248E+02  0.210E+02  0.162E+02  0.118E+02
  0.832E+01  0.575E+01  0.379E+01  0.255E+01  0.169E+01  0.111E+01  0.723E+00
  0.470E+00  0.305E+00  0.199E+00  0.130E+00  0.852E-01  0.558E-01  0.366E-01
  0.240E-01  0.156E-01  0.102E-01  0.659E-02  0.409E-02  0.543E-02  0.824E-01
  0.560E+00  0.284E+01  0.540E+01  0.459E+01  0.394E+01  0.626E+01  0.164E+02
  0.169E+02  0.125E+02  0.109E+02  0.885E+01  0.643E+01  0.464E+01  0.323E+01
  0.222E+01  0.152E+01  0.100E+01  0.653E+00  0.422E+00  0.271E+00  0.174E+00
  0.112E+00  0.722E-01  0.467E-01  0.304E-01  0.199E-01  0.129E-01  0.841E-02
  0.546E-02  0.339E-02  0.112E-02  0.148E-01  0.545E-01  0.121E+00  0.317E+00
  0.753E+00  0.134E+01  0.261E+01  0.548E+01  0.126E+02  0.109E+02  0.670E+01
  0.512E+01  0.364E+01  0.269E+01  0.199E+01  0.143E+01  0.101E+01  0.697E+00
  0.467E+00  0.309E+00  0.202E+00  0.130E+00  0.837E-01  0.537E-01  0.344E-01
  0.221E-01  0.143E-01  0.918E-02  0.593E-02  0.383E-02  0.238E-02  0.117E-04
  0.769E-04  0.194E-03  0.910E-03  0.606E-02  0.571E-01  0.336E+00  0.979E+00
  0.165E+01  0.333E+01  0.662E+01  0.419E+01  0.276E+01  0.203E+01  0.138E+01
  0.975E+00  0.705E+00  0.507E+00  0.362E+00  0.253E+00  0.172E+00  0.115E+00
  0.759E-01  0.491E-01  0.314E-01  0.199E-01  0.125E-01  0.789E-02  0.493E-02
  0.311E-02  0.197E-02  0.122E-02  0.421E-06  0.769E-05  0.843E-04  0.750E-03
  0.411E-02  0.143E-01  0.414E-01  0.152E+00  0.288E+00  0.524E+00  0.103E+01
  0.117E+01  0.718E+00  0.548E+00  0.447E+00  0.331E+00  0.237E+00  0.165E+00
  0.117E+00  0.833E-01  0.595E-01  0.417E-01  0.285E-01  0.190E-01  0.123E-01
  0.772E-02  0.477E-02  0.290E-02  0.173E-02  0.104E-02  0.620E-03  0.385E-03
  0.127E-05  0.255E-04  0.300E-03  0.209E-02  0.827E-02  0.223E-01  0.408E-01
  0.494E-01  0.460E-01  0.488E-01  0.586E-01  0.643E-01  0.531E-01  0.409E-01
  0.398E-01  0.345E-01  0.267E-01  0.193E-01  0.133E-01  0.901E-02  0.626E-02
  0.444E-02  0.319E-02  0.228E-02  0.157E-02  0.103E-02  0.650E-03  0.391E-03
  0.225E-03  0.126E-03  0.686E-04  0.426E-04  0.532E-05  0.897E-04  0.990E-03
  0.685E-02  0.270E-01  0.770E-01  0.138E+00  0.126E+00  0.910E-01  0.604E-01
  0.411E-01  0.287E-01  0.189E-01  0.114E-01  0.670E-02  0.352E-02  0.168E-02
  0.826E-03  0.464E-03  0.280E-03  0.171E-03  0.104E-03  0.638E-04  0.400E-04
  0.257E-04  0.167E-04  0.109E-04  0.681E-05  0.399E-05  0.221E-05  0.115E-05
  0.714E-06  0.120E-04  0.203E-03  0.224E-02  0.156E-01  0.610E-01  0.175E+00
  0.308E+00  0.272E+00  0.190E+00  0.120E+00  0.768E-01  0.513E-01  0.319E-01
  0.173E-01  0.856E-02  0.361E-02  0.106E-02  0.200E-03  0.376E-04  0.115E-04
  0.607E-05  0.337E-05  0.180E-05  0.941E-06  0.483E-06  0.242E-06  0.122E-06
  0.615E-07  0.339E-07  0.188E-07  0.105E-07  0.649E-08  0.153E-04  0.258E-03
  0.284E-02  0.198E-01  0.751E-01  0.211E+00  0.360E+00  0.307E+00  0.203E+00
  0.124E+00  0.770E-01  0.499E-01  0.285E-01  0.138E-01  0.652E-02  0.253E-02
  0.704E-03  0.119E-03  0.109E-04  0.492E-06  0.376E-07  0.230E-07  0.129E-07
  0.664E-08  0.315E-08  0.139E-08  0.607E-09  0.255E-09  0.140E-09  0.773E-10
  0.430E-10  0.267E-10  0.102E-04  0.172E-03  0.192E-02  0.132E-01  0.492E-01
  0.135E+00  0.223E+00  0.192E+00  0.123E+00  0.721E-01  0.422E-01  0.242E-01
  0.119E-01  0.493E-02  0.202E-02  0.729E-03  0.163E-03  0.209E-04  0.165E-05
  0.874E-07  0.191E-09  0.183E-10  0.273E-11  0.666E-12  0.241E-12  0.937E-13
  0.372E-13  0.137E-13  0.743E-14  0.409E-14  0.227E-14  0.141E-14  0.166E-05
  0.294E-04  0.352E-03  0.247E-02  0.909E-02  0.255E-01  0.479E-01  0.496E-01
  0.351E-01  0.200E-01  0.993E-02  0.403E-02  0.119E-02  0.289E-03  0.677E-04
  0.155E-04  0.199E-05  0.657E-07  0.155E-08  0.595E-09  0.579E-10  0.445E-11
  0.276E-13  0.385E-14  0.548E-15  0.756E-15  0.891E-15  0.401E-15  0.976E-16
  0.221E-16  0.986E-16  0.612E-16  0.120E-08  0.411E-07  0.901E-06  0.101E-04
  0.653E-04  0.225E-03  0.689E-03  0.908E-03  0.137E-02  0.688E-03  0.343E-03
  0.175E-03  0.706E-04  0.287E-04  0.105E-04  0.234E-05  0.211E-06  0.461E-08
  0.308E-10  0.127E-11  0.360E-12  0.165E-12  0.114E-12  0.933E-13  0.606E-13
  0.301E-13  0.133E-13  0.434E-14  0.248E-14  0.142E-14  0.817E-15  0.507E-15
  0.821E-08  0.255E-06  0.427E-05  0.412E-04  0.182E-03  0.393E-03  0.679E-03
  0.972E-03  0.147E-02  0.205E-02  0.200E-02  0.151E-02  0.727E-03  0.186E-03
  0.261E-04  0.218E-05  0.115E-06  0.794E-08  0.726E-08  0.154E-07  0.213E-07
  0.198E-07  0.134E-07  0.709E-08  0.305E-08  0.110E-08  0.376E-09  0.117E-09
  0.649E-10  0.362E-10  0.203E-10  0.126E-10  0.889E-07  0.251E-05  0.387E-04
  0.370E-03  0.163E-02  0.306E-02  0.524E-02  0.946E-02  0.208E-01  0.320E-01
  0.308E-01  0.214E-01  0.965E-02  0.278E-02  0.518E-03  0.546E-04  0.118E-04
  0.140E-04  0.133E-04  0.102E-04  0.665E-05  0.382E-05  0.195E-05  0.903E-06
  0.396E-06  0.167E-06  0.717E-07  0.315E-07  0.176E-07  0.985E-08  0.552E-08
  0.343E-08  0.430E-06  0.960E-05  0.124E-03  0.107E-02  0.447E-02  0.843E-02
  0.150E-01  0.276E-01  0.586E-01  0.911E-01  0.883E-01  0.599E-01  0.265E-01
  0.857E-02  0.231E-02  0.831E-03  0.572E-03  0.435E-03  0.305E-03  0.198E-03
  0.120E-03  0.710E-04  0.422E-04  0.259E-04  0.174E-04  0.131E-04  0.104E-04
  0.759E-05  0.479E-05  0.257E-05  0.117E-05  0.724E-06  0.284E-05  0.509E-04
  0.481E-03  0.323E-02  0.109E-01  0.201E-01  0.335E-01  0.428E-01  0.623E-01
  0.895E-01  0.922E-01  0.651E-01  0.357E-01  0.187E-01  0.118E-01  0.930E-02
  0.768E-02  0.591E-02  0.456E-02  0.361E-02  0.298E-02  0.278E-02  0.269E-02
  0.240E-02  0.190E-02  0.134E-02  0.861E-03  0.498E-03  0.260E-03  0.127E-03
  0.587E-04  0.365E-04  0.168E-04  0.277E-03  0.251E-02  0.162E-01  0.529E-01
  0.106E+00  0.189E+00  0.205E+00  0.207E+00  0.209E+00  0.202E+00  0.161E+00
  0.120E+00  0.103E+00  0.970E-01  0.929E-01  0.857E-01  0.765E-01  0.740E-01
  0.702E-01  0.598E-01  0.464E-01  0.334E-01  0.228E-01  0.147E-01  0.900E-02
  0.525E-02  0.296E-02  0.162E-02  0.897E-03  0.500E-03  0.311E-03  0.182E-03
  0.257E-02  0.167E-01  0.543E-01  0.107E+00  0.169E+00  0.280E+00  0.317E+00
  0.339E+00  0.382E+00  0.446E+00  0.506E+00  0.524E+00  0.590E+00  0.627E+00
  0.637E+00  0.597E+00  0.498E+00  0.384E+00  0.278E+00  0.194E+00  0.131E+00
  0.855E-01  0.541E-01  0.332E-01  0.201E-01  0.121E-01  0.730E-02  0.442E-02
  0.274E-02  0.171E-02  0.106E-02  0.141E-02  0.285E-01  0.241E+00  0.543E+00
  0.562E+00  0.576E+00  0.561E+00  0.611E+00  0.882E+00  0.134E+01  0.186E+01
  0.242E+01  0.293E+01  0.309E+01  0.263E+01  0.206E+01  0.155E+01  0.110E+01
  0.765E+00  0.516E+00  0.337E+00  0.215E+00  0.134E+00  0.834E-01  0.519E-01
  0.326E-01  0.206E-01  0.132E-01  0.848E-02  0.550E-02  0.358E-02  0.222E-02
  0.509E-02  0.174E+00  0.176E+01  0.476E+01  0.593E+01  0.945E+01  0.115E+02
  0.105E+02  0.863E+01  0.952E+01  0.108E+02  0.993E+01  0.855E+01  0.702E+01
  0.507E+01  0.352E+01  0.245E+01  0.165E+01  0.107E+01  0.678E+00  0.424E+00
  0.265E+00  0.167E+00  0.106E+00  0.685E-01  0.444E-01  0.290E-01  0.191E-01
  0.125E-01  0.821E-02  0.537E-02  0.334E-02  0.306E-01  0.451E+00  0.403E+01
  0.211E+02  0.545E+02  0.101E+03  0.110E+03  0.849E+02  0.485E+02  0.290E+02
  0.233E+02  0.186E+02  0.135E+02  0.931E+01  0.633E+01  0.411E+01  0.266E+01
  0.170E+01  0.108E+01  0.686E+00  0.442E+00  0.287E+00  0.187E+00  0.123E+00
  0.814E-01  0.539E-01  0.358E-01  0.238E-01  0.156E-01  0.102E-01  0.663E-02
  0.412E-02  0.583E-01  0.628E+00  0.436E+01  0.207E+02  0.930E+02  0.235E+03
  0.244E+03  0.158E+03  0.103E+03  0.580E+02  0.326E+02  0.232E+02  0.157E+02
  0.970E+01  0.610E+01  0.381E+01  0.240E+01  0.157E+01  0.104E+01  0.683E+00
  0.454E+00  0.303E+00  0.203E+00  0.136E+00  0.916E-01  0.612E-01  0.407E-01
  0.269E-01  0.176E-01  0.114E-01  0.735E-02  0.457E-02
20080310 150000
'W0052N489 '  48.90  -5.20      99.9  22.25 275.2   0.00 270.0
  0.317E+00  0.493E+01  0.380E+02  0.104E+03  0.227E+03  0.278E+03  0.224E+03
  0.127E+03  0.770E+02  0.509E+02  0.332E+02  0.213E+02  0.131E+02  0.814E+01
  0.520E+01  0.339E+01  0.223E+01  0.149E+01  0.998E+00  0.672E+00  0.454E+00
  0.307E+00  0.207E+00  0.139E+00  0.925E-01  0.613E-01  0.404E-01  0.265E-01
  0.172E-01  0.111E-01  0.715E-02  0.444E-02  0.341E+00  0.508E+01  0.342E+02
  0.722E+02  0.102E+03  0.997E+02  0.107E+03  0.741E+02  0.446E+02  0.354E+02
  0.262E+02  0.181E+02  0.124E+02  0.824E+01  0.537E+01  0.360E+01  0.239E+01
  0.157E+01  0.104E+01  0.687E+00  0.454E+00  0.301E+00  0.199E+00  0.132E+00
  0.871E-01  0.574E-01  0.378E-01  0.248E-01  0.161E-01  0.105E-01  0.676E-02
  0.420E-02  0.192E+00  0.198E+01  0.108E+02  0.232E+02  0.255E+02  0.193E+02
  0.203E+02  0.306E+02  0.269E+02  0.232E+02  0.194E+02  0.151E+02  0.110E+02
  0.773E+01  0.533E+01  0.363E+01  0.243E+01  0.160E+01  0.104E+01  0.670E+00
  0.431E+00  0.278E+00  0.180E+00  0.117E+00  0.766E-01  0.502E-01  0.329E-01
  0.217E-01  0.142E-01  0.922E-02  0.599E-02  0.372E-02  0.695E-01  0.553E+00
  0.251E+01  0.549E+01  0.459E+01  0.302E+01  0.375E+01  0.703E+01  0.157E+02
  0.143E+02  0.112E+02  0.954E+01  0.744E+01  0.550E+01  0.405E+01  0.286E+01
  0.198E+01  0.134E+01  0.878E+00  0.569E+00  0.365E+00  0.234E+00  0.149E+00
  0.958E-01  0.618E-01  0.400E-01  0.261E-01  0.171E-01  0.111E-01  0.727E-02
  0.474E-02  0.294E-02  0.131E-01  0.843E-01  0.239E+00  0.255E+00  0.168E+00
  0.416E+00  0.849E+00  0.202E+01  0.492E+01  0.103E+02  0.856E+01  0.556E+01
  0.410E+01  0.294E+01  0.221E+01  0.163E+01  0.117E+01  0.819E+00  0.557E+00
  0.371E+00  0.244E+00  0.158E+00  0.102E+00  0.650E-01  0.414E-01  0.264E-01
  0.170E-01  0.110E-01  0.705E-02  0.456E-02  0.296E-02  0.184E-02  0.264E-04
  0.135E-03  0.396E-03  0.163E-02  0.111E-01  0.546E-01  0.242E+00  0.719E+00
  0.134E+01  0.272E+01  0.441E+01  0.263E+01  0.189E+01  0.137E+01  0.966E+00
  0.697E+00  0.513E+00  0.375E+00  0.268E+00  0.187E+00  0.127E+00  0.844E-01
  0.548E-01  0.349E-01  0.219E-01  0.136E-01  0.841E-02  0.521E-02  0.322E-02
  0.202E-02  0.127E-02  0.788E-03  0.832E-05  0.912E-04  0.690E-03  0.293E-02
  0.841E-02  0.194E-01  0.411E-01  0.174E+00  0.360E+00  0.491E+00  0.679E+00
  0.582E+00  0.354E+00  0.281E+00  0.222E+00  0.162E+00  0.115E+00  0.830E-01
  0.610E-01  0.456E-01  0.335E-01  0.237E-01  0.162E-01  0.106E-01  0.665E-02
  0.405E-02  0.241E-02  0.140E-02  0.803E-03  0.464E-03  0.269E-03  0.167E-03
  0.369E-04  0.492E-03  0.356E-02  0.132E-01  0.332E-01  0.541E-01  0.511E-01
  0.501E-01  0.539E-01  0.570E-01  0.470E-01  0.344E-01  0.229E-01  0.171E-01
  0.144E-01  0.109E-01  0.782E-02  0.540E-02  0.364E-02  0.250E-02  0.177E-02
  0.130E-02  0.961E-03  0.690E-03  0.472E-03  0.303E-03  0.183E-03  0.104E-03
  0.556E-04  0.288E-04  0.146E-04  0.906E-05  0.139E-03  0.184E-02  0.129E-01
  0.454E-01  0.121E+00  0.210E+00  0.194E+00  0.147E+00  0.103E+00  0.717E-01
  0.485E-01  0.307E-01  0.185E-01  0.104E-01  0.517E-02  0.207E-02  0.732E-03
  0.290E-03  0.139E-03  0.750E-04  0.421E-04  0.234E-04  0.131E-04  0.744E-05
  0.435E-05  0.255E-05  0.152E-05  0.883E-06  0.485E-06  0.255E-06  0.129E-06
  0.803E-07  0.316E-03  0.428E-02  0.298E-01  0.104E+00  0.279E+00  0.483E+00
  0.440E+00  0.328E+00  0.223E+00  0.150E+00  0.984E-01  0.601E-01  0.336E-01
  0.174E-01  0.759E-02  0.259E-02  0.571E-03  0.956E-04  0.148E-04  0.290E-05
  0.140E-05  0.714E-06  0.348E-06  0.164E-06  0.768E-07  0.352E-07  0.164E-07
  0.781E-08  0.430E-08  0.238E-08  0.133E-08  0.823E-09  0.421E-03  0.558E-02
  0.383E-01  0.131E+00  0.344E+00  0.582E+00  0.523E+00  0.379E+00  0.245E+00
  0.160E+00  0.102E+00  0.591E-01  0.306E-01  0.144E-01  0.593E-02  0.188E-02
  0.415E-03  0.563E-04  0.522E-05  0.159E-06  0.266E-08  0.138E-08  0.675E-09
  0.301E-09  0.122E-09  0.457E-10  0.172E-10  0.620E-11  0.338E-11  0.186E-11
  0.103E-11  0.639E-12  0.294E-03  0.385E-02  0.257E-01  0.861E-01  0.223E+00
  0.375E+00  0.340E+00  0.246E+00  0.157E+00  0.982E-01  0.585E-01  0.301E-01
  0.132E-01  0.541E-02  0.196E-02  0.563E-03  0.933E-04  0.905E-05  0.830E-06
  0.346E-07  0.130E-09  0.167E-10  0.225E-11  0.343E-12  0.566E-13  0.102E-13
  0.198E-14  0.396E-15  0.963E-16  0.282E-16  0.204E-16  0.126E-16  0.595E-04
  0.739E-03  0.485E-02  0.167E-01  0.415E-01  0.772E-01  0.911E-01  0.742E-01
  0.502E-01  0.310E-01  0.159E-01  0.572E-02  0.148E-02  0.328E-03  0.670E-04
  0.108E-04  0.488E-06  0.808E-08  0.367E-08  0.510E-09  0.512E-10  0.523E-12
  0.400E-13  0.554E-14  0.896E-15  0.785E-15  0.420E-15  0.765E-15  0.365E-15
  0.938E-16  0.235E-16  0.146E-16  0.102E-06  0.126E-05  0.109E-04  0.710E-04
  0.261E-03  0.698E-03  0.130E-02  0.343E-02  0.354E-02  0.191E-02  0.790E-03
  0.254E-03  0.612E-04  0.134E-04  0.248E-05  0.268E-06  0.108E-07  0.165E-09
  0.193E-10  0.898E-11  0.728E-11  0.835E-11  0.739E-11  0.447E-11  0.185E-11
  0.550E-12  0.146E-12  0.322E-13  0.187E-13  0.108E-13  0.629E-14  0.391E-14
  0.372E-06  0.528E-05  0.431E-04  0.273E-03  0.751E-03  0.113E-02  0.173E-02
  0.204E-02  0.290E-02  0.342E-02  0.292E-02  0.171E-02  0.600E-03  0.124E-03
  0.115E-04  0.605E-06  0.827E-07  0.157E-06  0.273E-06  0.305E-06  0.241E-06
  0.144E-06  0.686E-07  0.272E-07  0.948E-08  0.300E-08  0.964E-09  0.318E-09
  0.178E-09  0.100E-09  0.564E-10  0.350E-10  0.363E-05  0.504E-04  0.405E-03
  0.241E-02  0.599E-02  0.792E-02  0.121E-01  0.166E-01  0.263E-01  0.297E-01
  0.254E-01  0.153E-01  0.620E-02  0.167E-02  0.306E-03  0.795E-04  0.668E-04
  0.582E-04  0.423E-04  0.264E-04  0.146E-04  0.732E-05  0.337E-05  0.151E-05
  0.686E-06  0.315E-06  0.157E-06  0.857E-07  0.508E-07  0.283E-07  0.148E-07
  0.920E-08  0.112E-04  0.155E-03  0.121E-02  0.655E-02  0.163E-01  0.214E-01
  0.331E-01  0.450E-01  0.649E-01  0.690E-01  0.548E-01  0.323E-01  0.147E-01
  0.598E-02  0.277E-02  0.183E-02  0.136E-02  0.965E-03  0.636E-03  0.400E-03
  0.258E-03  0.173E-03  0.128E-03  0.114E-03  0.106E-03  0.879E-04  0.620E-04
  0.363E-04  0.176E-04  0.741E-05  0.280E-05  0.174E-05  0.539E-04  0.697E-03
  0.531E-02  0.174E-01  0.361E-01  0.448E-01  0.482E-01  0.514E-01  0.634E-01
  0.705E-01  0.644E-01  0.468E-01  0.354E-01  0.301E-01  0.265E-01  0.225E-01
  0.180E-01  0.146E-01  0.123E-01  0.112E-01  0.115E-01  0.110E-01  0.921E-02
  0.687E-02  0.461E-02  0.279E-02  0.155E-02  0.794E-03  0.382E-03  0.182E-03
  0.873E-04  0.542E-04  0.300E-03  0.400E-02  0.314E-01  0.956E-01  0.194E+00
  0.256E+00  0.243E+00  0.218E+00  0.212E+00  0.231E+00  0.244E+00  0.223E+00
  0.224E+00  0.237E+00  0.235E+00  0.218E+00  0.204E+00  0.199E+00  0.179E+00
  0.143E+00  0.106E+00  0.743E-01  0.493E-01  0.311E-01  0.187E-01  0.107E-01
  0.606E-02  0.341E-02  0.192E-02  0.112E-02  0.670E-03  0.416E-03  0.132E-02
  0.183E-01  0.901E-01  0.200E+00  0.328E+00  0.415E+00  0.423E+00  0.455E+00
  0.557E+00  0.724E+00  0.921E+00  0.107E+01  0.124E+01  0.138E+01  0.139E+01
  0.123E+01  0.976E+00  0.731E+00  0.521E+00  0.358E+00  0.238E+00  0.153E+00
  0.948E-01  0.577E-01  0.348E-01  0.211E-01  0.129E-01  0.808E-02  0.509E-02
  0.327E-02  0.213E-02  0.132E-02  0.130E-01  0.236E+00  0.720E+00  0.868E+00
  0.870E+00  0.949E+00  0.112E+01  0.165E+01  0.270E+01  0.379E+01  0.490E+01
  0.583E+01  0.573E+01  0.468E+01  0.356E+01  0.266E+01  0.190E+01  0.131E+01
  0.873E+00  0.561E+00  0.352E+00  0.218E+00  0.135E+00  0.846E-01  0.534E-01
  0.342E-01  0.221E-01  0.145E-01  0.950E-02  0.625E-02  0.411E-02  0.255E-02
  0.755E-01  0.148E+01  0.410E+01  0.418E+01  0.597E+01  0.112E+02  0.163E+02
  0.180E+02  0.190E+02  0.197E+02  0.171E+02  0.138E+02  0.109E+02  0.811E+01
  0.565E+01  0.389E+01  0.256E+01  0.163E+01  0.103E+01  0.642E+00  0.402E+00
  0.255E+00  0.163E+00  0.106E+00  0.692E-01  0.456E-01  0.302E-01  0.201E-01
  0.132E-01  0.871E-02  0.570E-02  0.354E-02  0.212E+00  0.278E+01  0.119E+02
  0.455E+02  0.138E+03  0.176E+03  0.142E+03  0.870E+02  0.543E+02  0.392E+02
  0.307E+02  0.223E+02  0.148E+02  0.961E+01  0.610E+01  0.387E+01  0.246E+01
  0.157E+01  0.100E+01  0.648E+00  0.423E+00  0.279E+00  0.184E+00  0.123E+00
  0.819E-01  0.546E-01  0.364E-01  0.241E-01  0.158E-01  0.103E-01  0.666E-02
  0.414E-02  0.250E+00  0.342E+01  0.217E+02  0.911E+02  0.323E+03  0.374E+03
  0.248E+03  0.165E+03  0.106E+03  0.605E+02  0.374E+02  0.242E+02  0.144E+02
  0.884E+01  0.552E+01  0.347E+01  0.224E+01  0.149E+01  0.980E+00  0.654E+00
  0.440E+00  0.297E+00  0.201E+00  0.135E+00  0.907E-01  0.604E-01  0.400E-01
  0.264E-01  0.171E-01  0.111E-01  0.713E-02  0.443E-02
20080310 180000
'W0052N489 '  48.90  -5.20      99.9  20.86 280.6   0.00 270.0
  0.234E+00  0.535E+01  0.428E+02  0.125E+03  0.241E+03  0.233E+03  0.186E+03
  0.101E+03  0.641E+02  0.445E+02  0.300E+02  0.192E+02  0.122E+02  0.766E+01
  0.496E+01  0.326E+01  0.217E+01  0.144E+01  0.965E+00  0.647E+00  0.435E+00
  0.292E+00  0.195E+00  0.130E+00  0.865E-01  0.572E-01  0.377E-01  0.247E-01
  0.160E-01  0.104E-01  0.669E-02  0.416E-02  0.425E+00  0.723E+01  0.394E+02
  0.759E+02  0.947E+02  0.780E+02  0.769E+02  0.502E+02  0.354E+02  0.285E+02
  0.214E+02  0.151E+02  0.106E+02  0.717E+01  0.488E+01  0.334E+01  0.225E+01
  0.150E+01  0.993E+00  0.653E+00  0.430E+00  0.283E+00  0.186E+00  0.122E+00
  0.801E-01  0.525E-01  0.345E-01  0.226E-01  0.147E-01  0.955E-02  0.619E-02
  0.384E-02  0.334E+00  0.357E+01  0.130E+02  0.183E+02  0.168E+02  0.131E+02
  0.166E+02  0.254E+02  0.211E+02  0.176E+02  0.148E+02  0.118E+02  0.884E+01
  0.634E+01  0.450E+01  0.312E+01  0.213E+01  0.142E+01  0.937E+00  0.609E+00
  0.393E+00  0.254E+00  0.164E+00  0.106E+00  0.690E-01  0.449E-01  0.294E-01
  0.193E-01  0.126E-01  0.819E-02  0.533E-02  0.331E-02  0.144E+00  0.137E+01
  0.510E+01  0.531E+01  0.227E+01  0.160E+01  0.287E+01  0.631E+01  0.134E+02
  0.128E+02  0.994E+01  0.786E+01  0.581E+01  0.426E+01  0.314E+01  0.224E+01
  0.156E+01  0.107E+01  0.711E+00  0.468E+00  0.305E+00  0.197E+00  0.127E+00
  0.818E-01  0.527E-01  0.341E-01  0.221E-01  0.144E-01  0.938E-02  0.610E-02
  0.396E-02  0.246E-02  0.362E-01  0.265E+00  0.623E+00  0.156E+00  0.348E-01
  0.271E+00  0.588E+00  0.154E+01  0.383E+01  0.768E+01  0.672E+01  0.465E+01
  0.341E+01  0.242E+01  0.176E+01  0.126E+01  0.894E+00  0.622E+00  0.423E+00
  0.284E+00  0.188E+00  0.122E+00  0.789E-01  0.505E-01  0.321E-01  0.203E-01
  0.130E-01  0.829E-02  0.528E-02  0.339E-02  0.218E-02  0.135E-02  0.121E-03
  0.420E-03  0.347E-03  0.216E-02  0.193E-01  0.502E-01  0.239E+00  0.849E+00
  0.127E+01  0.203E+01  0.286E+01  0.176E+01  0.131E+01  0.970E+00  0.696E+00
  0.498E+00  0.357E+00  0.256E+00  0.180E+00  0.125E+00  0.849E-01  0.564E-01
  0.367E-01  0.234E-01  0.147E-01  0.903E-02  0.553E-02  0.337E-02  0.204E-02
  0.125E-02  0.772E-03  0.479E-03  0.376E-04  0.451E-03  0.301E-02  0.810E-02
  0.145E-01  0.210E-01  0.367E-01  0.223E+00  0.410E+00  0.449E+00  0.520E+00
  0.392E+00  0.213E+00  0.159E+00  0.121E+00  0.860E-01  0.601E-01  0.421E-01
  0.299E-01  0.216E-01  0.154E-01  0.108E-01  0.727E-02  0.474E-02  0.299E-02
  0.182E-02  0.107E-02  0.616E-03  0.345E-03  0.193E-03  0.108E-03  0.668E-04
  0.105E-03  0.151E-02  0.880E-02  0.257E-01  0.578E-01  0.597E-01  0.476E-01
  0.435E-01  0.488E-01  0.514E-01  0.399E-01  0.290E-01  0.158E-01  0.972E-02
  0.693E-02  0.455E-02  0.293E-02  0.188E-02  0.119E-02  0.760E-03  0.492E-03
  0.326E-03  0.220E-03  0.148E-03  0.970E-04  0.606E-04  0.362E-04  0.204E-04
  0.108E-04  0.548E-05  0.269E-05  0.167E-05  0.293E-03  0.445E-02  0.253E-01
  0.790E-01  0.210E+00  0.225E+00  0.181E+00  0.131E+00  0.975E-01  0.728E-01
  0.504E-01  0.317E-01  0.195E-01  0.113E-01  0.538E-02  0.203E-02  0.597E-03
  0.170E-03  0.555E-04  0.236E-04  0.124E-04  0.653E-05  0.340E-05  0.177E-05
  0.934E-06  0.488E-06  0.260E-06  0.139E-06  0.761E-07  0.414E-07  0.226E-07
  0.140E-07  0.639E-03  0.979E-02  0.537E-01  0.172E+00  0.479E+00  0.523E+00
  0.421E+00  0.304E+00  0.221E+00  0.160E+00  0.108E+00  0.673E-01  0.383E-01
  0.205E-01  0.906E-02  0.319E-02  0.749E-03  0.131E-03  0.195E-04  0.151E-05
  0.203E-06  0.101E-06  0.480E-07  0.218E-07  0.967E-08  0.415E-08  0.182E-08
  0.803E-09  0.440E-09  0.243E-09  0.135E-09  0.840E-10  0.873E-03  0.131E-01
  0.689E-01  0.220E+00  0.609E+00  0.652E+00  0.513E+00  0.358E+00  0.251E+00
  0.179E+00  0.116E+00  0.692E-01  0.377E-01  0.188E-01  0.781E-02  0.256E-02
  0.615E-03  0.973E-04  0.116E-04  0.648E-06  0.408E-09  0.494E-10  0.128E-10
  0.510E-11  0.195E-11  0.678E-12  0.241E-12  0.803E-13  0.437E-13  0.243E-13
  0.135E-13  0.839E-14  0.647E-03  0.952E-02  0.482E-01  0.150E+00  0.412E+00
  0.442E+00  0.343E+00  0.241E+00  0.167E+00  0.116E+00  0.704E-01  0.369E-01
  0.180E-01  0.781E-02  0.299E-02  0.907E-03  0.199E-03  0.223E-04  0.251E-05
  0.132E-06  0.256E-09  0.315E-10  0.400E-11  0.604E-12  0.971E-13  0.162E-13
  0.304E-14  0.578E-15  0.121E-15  0.268E-16  0.223E-16  0.139E-16  0.179E-03
  0.252E-02  0.133E-01  0.403E-01  0.105E+00  0.131E+00  0.111E+00  0.853E-01
  0.598E-01  0.393E-01  0.196E-01  0.703E-02  0.198E-02  0.483E-03  0.104E-03
  0.176E-04  0.789E-06  0.590E-07  0.104E-07  0.137E-08  0.162E-09  0.272E-11
  0.131E-12  0.159E-13  0.213E-14  0.328E-15  0.460E-15  0.516E-15  0.506E-15
  0.134E-15  0.330E-16  0.205E-16  0.184E-05  0.231E-04  0.117E-03  0.411E-03
  0.130E-02  0.285E-02  0.784E-02  0.932E-02  0.663E-02  0.274E-02  0.130E-02
  0.459E-03  0.106E-03  0.161E-04  0.135E-05  0.635E-07  0.239E-08  0.751E-09
  0.522E-09  0.477E-09  0.743E-09  0.944E-09  0.724E-09  0.358E-09  0.126E-09
  0.351E-10  0.914E-11  0.210E-11  0.119E-11  0.678E-12  0.386E-12  0.239E-12
  0.509E-05  0.584E-04  0.377E-03  0.121E-02  0.242E-02  0.318E-02  0.331E-02
  0.384E-02  0.492E-02  0.485E-02  0.363E-02  0.198E-02  0.670E-03  0.136E-03
  0.111E-04  0.128E-05  0.183E-05  0.290E-05  0.327E-05  0.273E-05  0.179E-05
  0.956E-06  0.435E-06  0.175E-06  0.659E-07  0.236E-07  0.875E-08  0.340E-08
  0.190E-08  0.106E-08  0.599E-09  0.372E-09  0.414E-04  0.462E-03  0.285E-02
  0.781E-02  0.136E-01  0.161E-01  0.176E-01  0.220E-01  0.308E-01  0.315E-01
  0.251E-01  0.149E-01  0.644E-02  0.188E-02  0.467E-03  0.265E-03  0.234E-03
  0.185E-03  0.127E-03  0.774E-04  0.428E-04  0.221E-04  0.112E-04  0.578E-05
  0.315E-05  0.189E-05  0.132E-05  0.927E-06  0.563E-06  0.282E-06  0.119E-06
  0.741E-07  0.111E-03  0.123E-02  0.756E-02  0.204E-01  0.349E-01  0.414E-01
  0.453E-01  0.530E-01  0.643E-01  0.630E-01  0.510E-01  0.322E-01  0.175E-01
  0.918E-02  0.571E-02  0.441E-02  0.344E-02  0.252E-02  0.178E-02  0.128E-02
  0.962E-03  0.801E-03  0.773E-03  0.748E-03  0.644E-03  0.476E-03  0.301E-03
  0.163E-03  0.771E-04  0.330E-04  0.133E-04  0.823E-05  0.183E-03  0.215E-02
  0.133E-01  0.319E-01  0.568E-01  0.582E-01  0.534E-01  0.540E-01  0.625E-01
  0.700E-01  0.691E-01  0.614E-01  0.599E-01  0.614E-01  0.598E-01  0.530E-01
  0.452E-01  0.393E-01  0.360E-01  0.352E-01  0.327E-01  0.272E-01  0.205E-01
  0.142E-01  0.904E-02  0.534E-02  0.296E-02  0.156E-02  0.794E-03  0.408E-03
  0.213E-03  0.132E-03  0.687E-03  0.923E-02  0.615E-01  0.144E+00  0.279E+00
  0.277E+00  0.237E+00  0.209E+00  0.223E+00  0.272E+00  0.307E+00  0.339E+00
  0.408E+00  0.462E+00  0.458E+00  0.428E+00  0.398E+00  0.348E+00  0.278E+00
  0.208E+00  0.148E+00  0.100E+00  0.649E-01  0.404E-01  0.243E-01  0.142E-01
  0.830E-02  0.486E-02  0.286E-02  0.174E-02  0.108E-02  0.669E-03  0.116E-02
  0.210E-01  0.123E+00  0.253E+00  0.442E+00  0.465E+00  0.459E+00  0.532E+00
  0.727E+00  0.105E+01  0.140E+01  0.176E+01  0.209E+01  0.218E+01  0.196E+01
  0.158E+01  0.120E+01  0.876E+00  0.613E+00  0.414E+00  0.271E+00  0.172E+00
  0.107E+00  0.657E-01  0.403E-01  0.249E-01  0.157E-01  0.998E-02  0.638E-02
  0.415E-02  0.271E-02  0.168E-02  0.978E-02  0.199E+00  0.537E+00  0.713E+00
  0.800E+00  0.102E+01  0.138E+01  0.253E+01  0.409E+01  0.582E+01  0.727E+01
  0.756E+01  0.670E+01  0.525E+01  0.398E+01  0.294E+01  0.208E+01  0.141E+01
  0.921E+00  0.584E+00  0.365E+00  0.228E+00  0.142E+00  0.897E-01  0.573E-01
  0.370E-01  0.241E-01  0.159E-01  0.105E-01  0.688E-02  0.452E-02  0.281E-02
  0.790E-01  0.131E+01  0.250E+01  0.241E+01  0.297E+01  0.988E+01  0.182E+02
  0.225E+02  0.234E+02  0.220E+02  0.186E+02  0.147E+02  0.114E+02  0.823E+01
  0.573E+01  0.385E+01  0.249E+01  0.157E+01  0.992E+00  0.623E+00  0.395E+00
  0.253E+00  0.164E+00  0.107E+00  0.705E-01  0.466E-01  0.310E-01  0.206E-01
  0.136E-01  0.891E-02  0.581E-02  0.361E-02  0.166E+00  0.193E+01  0.602E+01
  0.258E+02  0.123E+03  0.164E+03  0.123E+03  0.769E+02  0.558E+02  0.410E+02
  0.325E+02  0.228E+02  0.147E+02  0.929E+01  0.585E+01  0.368E+01  0.234E+01
  0.149E+01  0.956E+00  0.623E+00  0.409E+00  0.271E+00  0.181E+00  0.121E+00
  0.808E-01  0.539E-01  0.359E-01  0.238E-01  0.156E-01  0.101E-01  0.655E-02
  0.406E-02  0.153E+00  0.227E+01  0.199E+02  0.107E+03  0.330E+03  0.311E+03
  0.219E+03  0.152E+03  0.102E+03  0.599E+02  0.377E+02  0.232E+02  0.139E+02
  0.850E+01  0.530E+01  0.334E+01  0.217E+01  0.143E+01  0.943E+00  0.630E+00
  0.424E+00  0.286E+00  0.193E+00  0.130E+00  0.869E-01  0.578E-01  0.383E-01
  0.252E-01  0.164E-01  0.106E-01  0.683E-02  0.424E-02
20080310 210000
'W0052N489 '  48.90  -5.20      99.9  18.16 280.8   0.00 270.0
  0.518E-01  0.163E+01  0.214E+02  0.788E+02  0.180E+03  0.173E+03  0.147E+03
  0.812E+02  0.507E+02  0.366E+02  0.252E+02  0.163E+02  0.107E+02  0.687E+01
  0.450E+01  0.300E+01  0.200E+01  0.134E+01  0.893E+00  0.596E+00  0.397E+00
  0.264E+00  0.175E+00  0.116E+00  0.767E-01  0.505E-01  0.332E-01  0.217E-01
  0.141E-01  0.915E-02  0.592E-02  0.368E-02  0.141E+00  0.318E+01  0.220E+02
  0.507E+02  0.675E+02  0.559E+02  0.613E+02  0.403E+02  0.276E+02  0.219E+02
  0.169E+02  0.123E+02  0.881E+01  0.608E+01  0.420E+01  0.292E+01  0.201E+01
  0.135E+01  0.904E+00  0.597E+00  0.392E+00  0.257E+00  0.168E+00  0.110E+00
  0.717E-01  0.468E-01  0.306E-01  0.200E-01  0.130E-01  0.844E-02  0.547E-02
  0.340E-02  0.156E+00  0.215E+01  0.812E+01  0.115E+02  0.894E+01  0.747E+01
  0.118E+02  0.215E+02  0.189E+02  0.148E+02  0.119E+02  0.929E+01  0.698E+01
  0.511E+01  0.371E+01  0.260E+01  0.181E+01  0.123E+01  0.821E+00  0.541E+00
  0.353E+00  0.229E+00  0.149E+00  0.963E-01  0.625E-01  0.405E-01  0.264E-01
  0.172E-01  0.112E-01  0.727E-02  0.472E-02  0.293E-02  0.847E-01  0.112E+01
  0.403E+01  0.426E+01  0.949E+00  0.870E+00  0.184E+01  0.474E+01  0.109E+02
  0.114E+02  0.923E+01  0.712E+01  0.509E+01  0.361E+01  0.261E+01  0.184E+01
  0.129E+01  0.881E+00  0.593E+00  0.396E+00  0.263E+00  0.172E+00  0.113E+00
  0.732E-01  0.475E-01  0.308E-01  0.200E-01  0.130E-01  0.842E-02  0.545E-02
  0.353E-02  0.219E-02  0.299E-01  0.282E+00  0.571E+00  0.671E-01  0.464E-01
  0.221E+00  0.474E+00  0.125E+01  0.283E+01  0.575E+01  0.558E+01  0.406E+01
  0.311E+01  0.223E+01  0.158E+01  0.111E+01  0.768E+00  0.525E+00  0.355E+00
  0.237E+00  0.157E+00  0.103E+00  0.677E-01  0.440E-01  0.284E-01  0.182E-01
  0.116E-01  0.746E-02  0.474E-02  0.303E-02  0.194E-02  0.120E-02  0.611E-03
  0.734E-03  0.788E-03  0.387E-02  0.291E-01  0.641E-01  0.230E+00  0.797E+00
  0.112E+01  0.167E+01  0.235E+01  0.143E+01  0.104E+01  0.805E+00  0.596E+00
  0.434E+00  0.310E+00  0.217E+00  0.150E+00  0.102E+00  0.685E-01  0.452E-01
  0.294E-01  0.190E-01  0.121E-01  0.761E-02  0.476E-02  0.295E-02  0.181E-02
  0.111E-02  0.681E-03  0.423E-03  0.376E-04  0.550E-03  0.300E-02  0.944E-02
  0.179E-01  0.225E-01  0.327E-01  0.115E+00  0.200E+00  0.314E+00  0.505E+00
  0.397E+00  0.183E+00  0.125E+00  0.893E-01  0.634E-01  0.454E-01  0.322E-01
  0.229E-01  0.161E-01  0.112E-01  0.760E-02  0.504E-02  0.326E-02  0.206E-02
  0.127E-02  0.777E-03  0.465E-03  0.271E-03  0.157E-03  0.894E-04  0.555E-04
  0.766E-04  0.132E-02  0.742E-02  0.232E-01  0.528E-01  0.512E-01  0.414E-01
  0.362E-01  0.328E-01  0.314E-01  0.337E-01  0.318E-01  0.175E-01  0.901E-02
  0.552E-02  0.328E-02  0.195E-02  0.118E-02  0.748E-03  0.485E-03  0.313E-03
  0.203E-03  0.131E-03  0.836E-04  0.526E-04  0.321E-04  0.192E-04  0.111E-04
  0.619E-05  0.337E-05  0.177E-05  0.110E-05  0.154E-03  0.279E-02  0.174E-01
  0.615E-01  0.169E+00  0.185E+00  0.153E+00  0.115E+00  0.909E-01  0.697E-01
  0.529E-01  0.359E-01  0.232E-01  0.139E-01  0.733E-02  0.298E-02  0.904E-03
  0.235E-03  0.575E-04  0.162E-04  0.796E-05  0.439E-05  0.239E-05  0.129E-05
  0.696E-06  0.367E-06  0.195E-06  0.103E-06  0.566E-07  0.312E-07  0.173E-07
  0.107E-07  0.300E-03  0.556E-02  0.357E-01  0.132E+00  0.383E+00  0.428E+00
  0.357E+00  0.269E+00  0.214E+00  0.163E+00  0.121E+00  0.805E-01  0.502E-01
  0.278E-01  0.136E-01  0.510E-02  0.146E-02  0.295E-03  0.487E-04  0.560E-05
  0.105E-06  0.428E-07  0.219E-07  0.109E-07  0.533E-08  0.248E-08  0.116E-08
  0.532E-09  0.293E-09  0.163E-09  0.906E-10  0.563E-10  0.415E-03  0.751E-02
  0.460E-01  0.168E+00  0.491E+00  0.542E+00  0.441E+00  0.321E+00  0.247E+00
  0.187E+00  0.134E+00  0.870E-01  0.524E-01  0.282E-01  0.130E-01  0.466E-02
  0.130E-02  0.257E-03  0.347E-04  0.379E-05  0.621E-07  0.769E-10  0.521E-11
  0.106E-11  0.440E-12  0.176E-12  0.722E-13  0.283E-13  0.161E-13  0.894E-14
  0.496E-14  0.308E-14  0.323E-03  0.568E-02  0.333E-01  0.117E+00  0.342E+00
  0.372E+00  0.298E+00  0.219E+00  0.167E+00  0.125E+00  0.845E-01  0.498E-01
  0.274E-01  0.131E-01  0.563E-02  0.193E-02  0.518E-03  0.931E-04  0.979E-05
  0.868E-06  0.155E-07  0.837E-10  0.987E-11  0.135E-11  0.207E-12  0.331E-13
  0.595E-14  0.115E-14  0.220E-15  0.469E-16  0.229E-16  0.142E-16  0.125E-03
  0.209E-02  0.123E-01  0.408E-01  0.111E+00  0.122E+00  0.103E+00  0.811E-01
  0.626E-01  0.435E-01  0.242E-01  0.101E-01  0.358E-02  0.103E-02  0.268E-03
  0.559E-04  0.655E-05  0.458E-06  0.485E-07  0.506E-08  0.551E-09  0.293E-10
  0.311E-12  0.379E-13  0.909E-14  0.241E-14  0.934E-15  0.335E-15  0.705E-15
  0.204E-15  0.676E-16  0.420E-16  0.134E-04  0.174E-03  0.139E-02  0.356E-02
  0.634E-02  0.917E-02  0.113E-01  0.111E-01  0.795E-02  0.383E-02  0.186E-02
  0.703E-03  0.203E-03  0.232E-04  0.142E-05  0.772E-07  0.103E-07  0.678E-08
  0.888E-08  0.838E-08  0.110E-07  0.908E-08  0.508E-08  0.205E-08  0.632E-09
  0.161E-09  0.399E-10  0.899E-11  0.502E-11  0.281E-11  0.158E-11  0.980E-12
  0.132E-04  0.157E-03  0.858E-03  0.226E-02  0.415E-02  0.463E-02  0.489E-02
  0.560E-02  0.643E-02  0.599E-02  0.497E-02  0.302E-02  0.108E-02  0.218E-03
  0.192E-04  0.648E-05  0.952E-05  0.115E-04  0.103E-04  0.730E-05  0.424E-05
  0.208E-05  0.887E-06  0.342E-06  0.125E-06  0.444E-07  0.164E-07  0.641E-08
  0.359E-08  0.202E-08  0.113E-08  0.703E-09  0.795E-04  0.915E-03  0.471E-02
  0.102E-01  0.168E-01  0.172E-01  0.192E-01  0.238E-01  0.321E-01  0.343E-01
  0.292E-01  0.187E-01  0.886E-02  0.287E-02  0.862E-03  0.562E-03  0.465E-03
  0.351E-03  0.232E-03  0.138E-03  0.755E-04  0.402E-04  0.218E-04  0.125E-04
  0.832E-05  0.648E-05  0.515E-05  0.353E-05  0.194E-05  0.854E-06  0.310E-06
  0.193E-06  0.196E-03  0.225E-02  0.115E-01  0.244E-01  0.404E-01  0.403E-01
  0.435E-01  0.482E-01  0.580E-01  0.644E-01  0.575E-01  0.412E-01  0.249E-01
  0.142E-01  0.963E-02  0.781E-02  0.626E-02  0.474E-02  0.352E-02  0.270E-02
  0.222E-02  0.208E-02  0.199E-02  0.173E-02  0.133E-02  0.893E-03  0.524E-03
  0.269E-03  0.123E-03  0.515E-04  0.205E-04  0.128E-04  0.211E-03  0.245E-02
  0.136E-01  0.307E-01  0.549E-01  0.545E-01  0.510E-01  0.498E-01  0.592E-01
  0.720E-01  0.770E-01  0.764E-01  0.815E-01  0.907E-01  0.943E-01  0.878E-01
  0.775E-01  0.697E-01  0.647E-01  0.585E-01  0.484E-01  0.368E-01  0.261E-01
  0.174E-01  0.107E-01  0.620E-02  0.338E-02  0.177E-02  0.904E-03  0.468E-03
  0.247E-03  0.153E-03  0.462E-03  0.609E-02  0.436E-01  0.119E+00  0.243E+00
  0.257E+00  0.233E+00  0.208E+00  0.229E+00  0.279E+00  0.331E+00  0.408E+00
  0.535E+00  0.633E+00  0.637E+00  0.588E+00  0.515E+00  0.414E+00  0.311E+00
  0.224E+00  0.155E+00  0.103E+00  0.657E-01  0.403E-01  0.240E-01  0.140E-01
  0.817E-02  0.481E-02  0.285E-02  0.174E-02  0.108E-02  0.671E-03  0.547E-03
  0.936E-02  0.804E-01  0.196E+00  0.376E+00  0.423E+00  0.437E+00  0.515E+00
  0.729E+00  0.110E+01  0.159E+01  0.216E+01  0.254E+01  0.248E+01  0.209E+01
  0.160E+01  0.118E+01  0.846E+00  0.586E+00  0.392E+00  0.253E+00  0.159E+00
  0.980E-01  0.602E-01  0.371E-01  0.231E-01  0.146E-01  0.933E-02  0.599E-02
  0.390E-02  0.255E-02  0.158E-02  0.241E-02  0.614E-01  0.305E+00  0.454E+00
  0.619E+00  0.821E+00  0.116E+01  0.235E+01  0.406E+01  0.599E+01  0.751E+01
  0.748E+01  0.634E+01  0.480E+01  0.357E+01  0.262E+01  0.185E+01  0.125E+01
  0.813E+00  0.515E+00  0.324E+00  0.204E+00  0.128E+00  0.816E-01  0.524E-01
  0.339E-01  0.222E-01  0.146E-01  0.962E-02  0.632E-02  0.415E-02  0.257E-02
  0.221E-01  0.455E+00  0.147E+01  0.170E+01  0.150E+01  0.636E+01  0.149E+02
  0.207E+02  0.211E+02  0.196E+02  0.164E+02  0.129E+02  0.998E+01  0.724E+01
  0.504E+01  0.336E+01  0.217E+01  0.138E+01  0.875E+00  0.556E+00  0.355E+00
  0.229E+00  0.149E+00  0.975E-01  0.643E-01  0.426E-01  0.283E-01  0.188E-01
  0.123E-01  0.806E-02  0.525E-02  0.326E-02  0.445E-01  0.694E+00  0.301E+01
  0.948E+01  0.646E+02  0.133E+03  0.101E+03  0.653E+02  0.486E+02  0.356E+02
  0.285E+02  0.205E+02  0.132E+02  0.832E+01  0.524E+01  0.329E+01  0.210E+01
  0.135E+01  0.871E+00  0.567E+00  0.372E+00  0.246E+00  0.164E+00  0.109E+00
  0.730E-01  0.486E-01  0.323E-01  0.213E-01  0.139E-01  0.905E-02  0.585E-02
  0.363E-02  0.337E-01  0.686E+00  0.783E+01  0.591E+02  0.210E+03  0.241E+03
  0.177E+03  0.127E+03  0.872E+02  0.520E+02  0.331E+02  0.207E+02  0.126E+02
  0.780E+01  0.490E+01  0.311E+01  0.202E+01  0.132E+01  0.870E+00  0.578E+00
  0.386E+00  0.259E+00  0.174E+00  0.116E+00  0.773E-01  0.513E-01  0.339E-01
  0.223E-01  0.145E-01  0.939E-02  0.606E-02  0.376E-02
20080311 000000
'W0052N489 '  48.90  -5.20      99.9  14.98 281.1   0.00 270.0
  0.572E-02  0.315E+00  0.662E+01  0.334E+02  0.106E+03  0.127E+03  0.118E+03
  0.661E+02  0.367E+02  0.265E+02  0.186E+02  0.125E+02  0.849E+01  0.559E+01
  0.372E+01  0.254E+01  0.173E+01  0.117E+01  0.789E+00  0.528E+00  0.351E+00
  0.232E+00  0.153E+00  0.101E+00  0.660E-01  0.431E-01  0.281E-01  0.183E-01
  0.119E-01  0.768E-02  0.497E-02  0.309E-02  0.233E-01  0.764E+00  0.862E+01
  0.230E+02  0.372E+02  0.324E+02  0.455E+02  0.361E+02  0.226E+02  0.170E+02
  0.129E+02  0.940E+01  0.686E+01  0.479E+01  0.332E+01  0.233E+01  0.163E+01
  0.112E+01  0.758E+00  0.508E+00  0.338E+00  0.224E+00  0.147E+00  0.961E-01
  0.626E-01  0.407E-01  0.264E-01  0.172E-01  0.111E-01  0.717E-02  0.463E-02
  0.288E-02  0.335E-01  0.638E+00  0.379E+01  0.563E+01  0.431E+01  0.358E+01
  0.703E+01  0.172E+02  0.172E+02  0.131E+02  0.106E+02  0.814E+01  0.581E+01
  0.406E+01  0.286E+01  0.200E+01  0.140E+01  0.962E+00  0.653E+00  0.438E+00
  0.291E+00  0.193E+00  0.127E+00  0.832E-01  0.545E-01  0.355E-01  0.232E-01
  0.151E-01  0.974E-02  0.629E-02  0.406E-02  0.252E-02  0.222E-01  0.383E+00
  0.207E+01  0.240E+01  0.524E+00  0.534E+00  0.114E+01  0.328E+01  0.884E+01
  0.102E+02  0.857E+01  0.681E+01  0.485E+01  0.333E+01  0.232E+01  0.158E+01
  0.107E+01  0.716E+00  0.473E+00  0.313E+00  0.209E+00  0.139E+00  0.921E-01
  0.610E-01  0.403E-01  0.265E-01  0.174E-01  0.114E-01  0.739E-02  0.478E-02
  0.308E-02  0.191E-02  0.102E-01  0.122E+00  0.341E+00  0.556E-01  0.982E-01
  0.223E+00  0.421E+00  0.106E+01  0.227E+01  0.464E+01  0.499E+01  0.368E+01
  0.295E+01  0.215E+01  0.153E+01  0.107E+01  0.733E+00  0.492E+00  0.324E+00
  0.210E+00  0.136E+00  0.874E-01  0.567E-01  0.369E-01  0.240E-01  0.156E-01
  0.101E-01  0.657E-02  0.422E-02  0.271E-02  0.173E-02  0.107E-02  0.613E-03
  0.298E-02  0.215E-02  0.198E-01  0.711E-01  0.120E+00  0.220E+00  0.501E+00
  0.746E+00  0.129E+01  0.219E+01  0.140E+01  0.977E+00  0.774E+00  0.597E+00
  0.456E+00  0.333E+00  0.233E+00  0.158E+00  0.105E+00  0.685E-01  0.436E-01
  0.273E-01  0.170E-01  0.106E-01  0.663E-02  0.417E-02  0.262E-02  0.164E-02
  0.103E-02  0.638E-03  0.396E-03  0.233E-04  0.359E-03  0.219E-02  0.847E-02
  0.225E-01  0.306E-01  0.367E-01  0.664E-01  0.860E-01  0.156E+00  0.336E+00
  0.372E+00  0.199E+00  0.135E+00  0.965E-01  0.698E-01  0.533E-01  0.405E-01
  0.299E-01  0.212E-01  0.144E-01  0.937E-02  0.590E-02  0.357E-02  0.210E-02
  0.122E-02  0.716E-03  0.422E-03  0.248E-03  0.147E-03  0.864E-04  0.537E-04
  0.264E-04  0.567E-03  0.389E-02  0.129E-01  0.353E-01  0.413E-01  0.365E-01
  0.306E-01  0.249E-01  0.207E-01  0.218E-01  0.246E-01  0.183E-01  0.107E-01
  0.683E-02  0.421E-02  0.255E-02  0.154E-02  0.989E-03  0.678E-03  0.472E-03
  0.320E-03  0.208E-03  0.129E-03  0.759E-04  0.423E-04  0.229E-04  0.121E-04
  0.634E-05  0.336E-05  0.179E-05  0.111E-05  0.359E-04  0.889E-03  0.770E-02
  0.311E-01  0.102E+00  0.141E+00  0.121E+00  0.923E-01  0.742E-01  0.583E-01
  0.468E-01  0.350E-01  0.253E-01  0.169E-01  0.104E-01  0.539E-02  0.201E-02
  0.588E-03  0.151E-03  0.356E-04  0.994E-05  0.481E-05  0.259E-05  0.141E-05
  0.772E-06  0.416E-06  0.224E-06  0.119E-06  0.642E-07  0.348E-07  0.190E-07
  0.118E-07  0.604E-04  0.154E-02  0.144E-01  0.642E-01  0.221E+00  0.324E+00
  0.282E+00  0.216E+00  0.176E+00  0.140E+00  0.114E+00  0.843E-01  0.576E-01
  0.365E-01  0.210E-01  0.968E-02  0.350E-02  0.951E-03  0.187E-03  0.297E-04
  0.319E-05  0.641E-07  0.267E-07  0.126E-07  0.607E-08  0.289E-08  0.141E-08
  0.682E-09  0.372E-09  0.205E-09  0.113E-09  0.702E-10  0.860E-04  0.213E-02
  0.191E-01  0.825E-01  0.282E+00  0.414E+00  0.349E+00  0.261E+00  0.206E+00
  0.163E+00  0.130E+00  0.945E-01  0.632E-01  0.387E-01  0.214E-01  0.970E-02
  0.332E-02  0.893E-03  0.169E-03  0.220E-04  0.227E-05  0.193E-07  0.370E-10
  0.278E-11  0.743E-12  0.271E-12  0.108E-12  0.435E-13  0.238E-13  0.135E-13
  0.754E-14  0.468E-14  0.687E-04  0.164E-02  0.142E-01  0.589E-01  0.198E+00
  0.285E+00  0.237E+00  0.180E+00  0.144E+00  0.115E+00  0.880E-01  0.591E-01
  0.368E-01  0.207E-01  0.104E-01  0.445E-02  0.151E-02  0.389E-03  0.658E-04
  0.680E-05  0.579E-06  0.345E-08  0.437E-10  0.492E-11  0.674E-12  0.102E-12
  0.165E-13  0.295E-14  0.564E-15  0.109E-15  0.228E-16  0.141E-16  0.345E-04
  0.748E-03  0.609E-02  0.242E-01  0.733E-01  0.946E-01  0.848E-01  0.697E-01
  0.594E-01  0.463E-01  0.321E-01  0.159E-01  0.707E-02  0.260E-02  0.827E-03
  0.220E-03  0.447E-04  0.546E-05  0.355E-06  0.393E-07  0.352E-08  0.324E-09
  0.133E-10  0.189E-12  0.391E-13  0.957E-14  0.232E-14  0.784E-15  0.111E-14
  0.406E-15  0.136E-15  0.847E-16  0.107E-04  0.183E-03  0.135E-02  0.471E-02
  0.102E-01  0.885E-02  0.112E-01  0.119E-01  0.101E-01  0.581E-02  0.244E-02
  0.108E-02  0.317E-03  0.456E-04  0.281E-05  0.249E-06  0.505E-07  0.230E-07
  0.323E-07  0.286E-07  0.308E-07  0.208E-07  0.104E-07  0.399E-08  0.123E-08
  0.324E-09  0.847E-10  0.207E-10  0.115E-10  0.639E-11  0.357E-11  0.222E-11
  0.151E-04  0.191E-03  0.100E-02  0.230E-02  0.405E-02  0.453E-02  0.492E-02
  0.582E-02  0.641E-02  0.605E-02  0.506E-02  0.340E-02  0.142E-02  0.336E-03
  0.369E-04  0.134E-04  0.176E-04  0.192E-04  0.158E-04  0.105E-04  0.586E-05
  0.283E-05  0.121E-05  0.474E-06  0.179E-06  0.660E-07  0.255E-07  0.105E-07
  0.589E-08  0.330E-08  0.182E-08  0.113E-08  0.559E-04  0.724E-03  0.367E-02
  0.809E-02  0.134E-01  0.143E-01  0.171E-01  0.218E-01  0.299E-01  0.346E-01
  0.325E-01  0.229E-01  0.120E-01  0.433E-02  0.131E-02  0.745E-03  0.599E-03
  0.452E-03  0.301E-03  0.180E-03  0.102E-03  0.579E-04  0.335E-04  0.216E-04
  0.164E-04  0.131E-04  0.960E-05  0.597E-05  0.307E-05  0.130E-05  0.468E-06
  0.291E-06  0.111E-03  0.150E-02  0.776E-02  0.178E-01  0.302E-01  0.321E-01
  0.371E-01  0.427E-01  0.544E-01  0.651E-01  0.636E-01  0.504E-01  0.323E-01
  0.181E-01  0.114E-01  0.907E-02  0.755E-02  0.598E-02  0.467E-02  0.377E-02
  0.335E-02  0.321E-02  0.288E-02  0.229E-02  0.163E-02  0.104E-02  0.593E-03
  0.303E-03  0.140E-03  0.608E-04  0.254E-04  0.158E-04  0.101E-03  0.137E-02
  0.753E-02  0.185E-01  0.355E-01  0.410E-01  0.420E-01  0.434E-01  0.525E-01
  0.653E-01  0.715E-01  0.704E-01  0.721E-01  0.808E-01  0.911E-01  0.926E-01
  0.863E-01  0.815E-01  0.767E-01  0.667E-01  0.523E-01  0.380E-01  0.260E-01
  0.169E-01  0.104E-01  0.599E-02  0.331E-02  0.177E-02  0.929E-03  0.493E-03
  0.267E-03  0.166E-03  0.139E-03  0.217E-02  0.164E-01  0.579E-01  0.137E+00
  0.187E+00  0.187E+00  0.174E+00  0.183E+00  0.213E+00  0.245E+00  0.303E+00
  0.420E+00  0.546E+00  0.602E+00  0.579E+00  0.504E+00  0.399E+00  0.293E+00
  0.206E+00  0.141E+00  0.925E-01  0.588E-01  0.362E-01  0.217E-01  0.128E-01
  0.758E-02  0.452E-02  0.271E-02  0.167E-02  0.104E-02  0.645E-03  0.137E-03
  0.264E-02  0.304E-01  0.937E-01  0.206E+00  0.285E+00  0.306E+00  0.342E+00
  0.467E+00  0.736E+00  0.118E+01  0.176E+01  0.221E+01  0.223E+01  0.187E+01
  0.142E+01  0.102E+01  0.720E+00  0.494E+00  0.329E+00  0.213E+00  0.135E+00
  0.838E-01  0.521E-01  0.325E-01  0.205E-01  0.130E-01  0.840E-02  0.541E-02
  0.352E-02  0.230E-02  0.143E-02  0.360E-03  0.127E-01  0.129E+00  0.213E+00
  0.317E+00  0.429E+00  0.556E+00  0.123E+01  0.265E+01  0.438E+01  0.596E+01
  0.623E+01  0.538E+01  0.404E+01  0.290E+01  0.208E+01  0.145E+01  0.986E+00
  0.649E+00  0.418E+00  0.267E+00  0.171E+00  0.110E+00  0.710E-01  0.461E-01
  0.300E-01  0.197E-01  0.130E-01  0.850E-02  0.557E-02  0.363E-02  0.226E-02
  0.296E-02  0.999E-01  0.674E+00  0.937E+00  0.735E+00  0.255E+01  0.947E+01
  0.151E+02  0.157E+02  0.150E+02  0.127E+02  0.998E+01  0.778E+01  0.570E+01
  0.398E+01  0.269E+01  0.176E+01  0.113E+01  0.731E+00  0.472E+00  0.306E+00
  0.199E+00  0.130E+00  0.855E-01  0.564E-01  0.373E-01  0.247E-01  0.163E-01
  0.107E-01  0.695E-02  0.451E-02  0.280E-02  0.548E-02  0.166E+00  0.137E+01
  0.342E+01  0.259E+02  0.995E+02  0.833E+02  0.544E+02  0.372E+02  0.261E+02
  0.207E+02  0.158E+02  0.106E+02  0.681E+01  0.435E+01  0.278E+01  0.180E+01
  0.118E+01  0.766E+00  0.501E+00  0.329E+00  0.217E+00  0.143E+00  0.951E-01
  0.631E-01  0.418E-01  0.276E-01  0.182E-01  0.118E-01  0.766E-02  0.495E-02
  0.307E-02  0.357E-02  0.138E+00  0.203E+01  0.221E+02  0.109E+03  0.187E+03
  0.142E+03  0.101E+03  0.666E+02  0.381E+02  0.242E+02  0.160E+02  0.102E+02
  0.649E+01  0.419E+01  0.271E+01  0.179E+01  0.118E+01  0.781E+00  0.517E+00
  0.344E+00  0.228E+00  0.151E+00  0.100E+00  0.661E-01  0.435E-01  0.286E-01
  0.187E-01  0.122E-01  0.787E-02  0.509E-02  0.316E-02
20080311 030000
'W0052N489 '  48.90  -5.20      99.9  15.09 269.9   0.00 270.0
  0.564E-03  0.512E-01  0.154E+01  0.114E+02  0.483E+02  0.877E+02  0.924E+02
  0.563E+02  0.293E+02  0.213E+02  0.160E+02  0.116E+02  0.821E+01  0.556E+01
  0.373E+01  0.256E+01  0.175E+01  0.119E+01  0.799E+00  0.532E+00  0.352E+00
  0.233E+00  0.153E+00  0.101E+00  0.661E-01  0.432E-01  0.283E-01  0.185E-01
  0.120E-01  0.779E-02  0.505E-02  0.314E-02  0.291E-02  0.151E+00  0.293E+01
  0.942E+01  0.171E+02  0.154E+02  0.261E+02  0.330E+02  0.194E+02  0.147E+02
  0.116E+02  0.902E+01  0.690E+01  0.501E+01  0.346E+01  0.242E+01  0.169E+01
  0.117E+01  0.796E+00  0.533E+00  0.352E+00  0.232E+00  0.152E+00  0.991E-01
  0.647E-01  0.421E-01  0.275E-01  0.179E-01  0.116E-01  0.753E-02  0.488E-02
  0.303E-02  0.498E-02  0.140E+00  0.154E+01  0.265E+01  0.212E+01  0.168E+01
  0.372E+01  0.124E+02  0.162E+02  0.122E+02  0.995E+01  0.790E+01  0.582E+01
  0.422E+01  0.307E+01  0.218E+01  0.154E+01  0.107E+01  0.724E+00  0.487E+00
  0.326E+00  0.216E+00  0.142E+00  0.934E-01  0.610E-01  0.397E-01  0.258E-01
  0.168E-01  0.108E-01  0.700E-02  0.452E-02  0.281E-02  0.384E-02  0.883E-01
  0.862E+00  0.111E+01  0.336E+00  0.372E+00  0.771E+00  0.228E+01  0.718E+01
  0.992E+01  0.823E+01  0.681E+01  0.491E+01  0.335E+01  0.230E+01  0.159E+01
  0.114E+01  0.812E+00  0.566E+00  0.388E+00  0.263E+00  0.176E+00  0.118E+00
  0.784E-01  0.519E-01  0.341E-01  0.223E-01  0.146E-01  0.941E-02  0.607E-02
  0.390E-02  0.242E-02  0.269E-02  0.364E-01  0.187E+00  0.103E+00  0.156E+00
[...]
  0.218E-01  0.165E-01  0.133E-01  0.133E-01  0.135E-01  0.120E-01  0.104E-01
  0.940E-02  0.867E-02  0.714E-02  0.514E-02  0.333E-02  0.197E-02  0.108E-02
  0.541E-03  0.252E-03  0.112E-03  0.483E-04  0.300E-04  0.226E-07  0.121E-05
  0.229E-04  0.275E-03  0.137E-02  0.331E-02  0.869E-02  0.134E-01  0.191E-01
  0.293E-01  0.398E-01  0.389E-01  0.382E-01  0.413E-01  0.500E-01  0.672E-01
  0.859E-01  0.901E-01  0.870E-01  0.774E-01  0.606E-01  0.434E-01  0.292E-01
  0.187E-01  0.114E-01  0.662E-02  0.371E-02  0.202E-02  0.109E-02  0.593E-03
  0.326E-03  0.203E-03  0.322E-07  0.196E-05  0.477E-04  0.746E-03  0.487E-02
  0.155E-01  0.486E-01  0.695E-01  0.765E-01  0.868E-01  0.108E+00  0.123E+00
  0.148E+00  0.208E+00  0.293E+00  0.365E+00  0.376E+00  0.319E+00  0.245E+00
  0.177E+00  0.122E+00  0.809E-01  0.519E-01  0.322E-01  0.195E-01  0.117E-01
  0.703E-02  0.426E-02  0.259E-02  0.160E-02  0.995E-03  0.618E-03  0.914E-07
  0.757E-05  0.255E-03  0.482E-02  0.175E-01  0.338E-01  0.756E-01  0.105E+00
  0.124E+00  0.170E+00  0.305E+00  0.603E+00  0.972E+00  0.125E+01  0.126E+01
  0.102E+01  0.758E+00  0.536E+00  0.371E+00  0.248E+00  0.162E+00  0.103E+00
  0.653E-01  0.414E-01  0.264E-01  0.169E-01  0.109E-01  0.710E-02  0.459E-02
  0.299E-02  0.195E-02  0.121E-02  0.406E-06  0.408E-04  0.161E-02  0.292E-01
  0.745E-01  0.786E-01  0.829E-01  0.133E+00  0.279E+00  0.788E+00  0.179E+01
  0.263E+01  0.292E+01  0.274E+01  0.213E+01  0.147E+01  0.999E+00  0.670E+00
  0.443E+00  0.288E+00  0.187E+00  0.123E+00  0.817E-01  0.546E-01  0.366E-01
  0.244E-01  0.163E-01  0.109E-01  0.717E-02  0.470E-02  0.306E-02  0.190E-02
  0.656E-06  0.944E-04  0.476E-02  0.860E-01  0.534E+00  0.140E+01  0.432E+01
  0.708E+01  0.798E+01  0.676E+01  0.612E+01  0.561E+01  0.463E+01  0.353E+01
  0.262E+01  0.179E+01  0.119E+01  0.792E+00  0.525E+00  0.348E+00  0.232E+00
  0.155E+00  0.104E+00  0.695E-01  0.466E-01  0.312E-01  0.208E-01  0.138E-01
  0.901E-02  0.585E-02  0.378E-02  0.235E-02  0.909E-06  0.139E-03  0.919E-02
  0.282E+00  0.342E+01  0.133E+02  0.481E+02  0.565E+02  0.402E+02  0.187E+02
  0.998E+01  0.720E+01  0.581E+01  0.428E+01  0.296E+01  0.197E+01  0.131E+01
  0.883E+00  0.599E+00  0.403E+00  0.269E+00  0.180E+00  0.120E+00  0.799E-01
  0.531E-01  0.351E-01  0.231E-01  0.152E-01  0.983E-02  0.635E-02  0.409E-02
  0.254E-02  0.193E-05  0.247E-03  0.115E-01  0.267E+00  0.304E+01  0.170E+02
  0.538E+02  0.591E+02  0.366E+02  0.224E+02  0.136E+02  0.763E+01  0.545E+01
  0.391E+01  0.272E+01  0.189E+01  0.133E+01  0.923E+00  0.638E+00  0.435E+00
  0.292E+00  0.194E+00  0.129E+00  0.849E-01  0.557E-01  0.364E-01  0.237E-01
  0.154E-01  0.999E-02  0.645E-02  0.417E-02  0.259E-02
20080312 180000
'W0052N489 '  48.90  -5.20      99.9  11.64 270.2   0.00 270.0
  0.824E-06  0.130E-03  0.698E-02  0.160E+00  0.200E+01  0.735E+01  0.265E+02
  0.447E+02  0.281E+02  0.129E+02  0.751E+01  0.551E+01  0.419E+01  0.320E+01
  0.236E+01  0.168E+01  0.120E+01  0.869E+00  0.617E+00  0.428E+00  0.289E+00
  0.193E+00  0.127E+00  0.833E-01  0.544E-01  0.354E-01  0.230E-01  0.149E-01
  0.960E-02  0.619E-02  0.400E-02  0.248E-02  0.140E-05  0.229E-03  0.121E-01
  0.263E+00  0.216E+01  0.292E+01  0.162E+01  0.191E+01  0.150E+02  0.935E+01
  0.620E+01  0.503E+01  0.400E+01  0.287E+01  0.214E+01  0.157E+01  0.114E+01
  0.828E+00  0.589E+00  0.408E+00  0.279E+00  0.188E+00  0.125E+00  0.820E-01
  0.536E-01  0.348E-01  0.226E-01  0.146E-01  0.942E-02  0.607E-02  0.391E-02
  0.243E-02  0.198E-05  0.210E-03  0.794E-02  0.136E+00  0.630E+00  0.406E+00
  0.237E+00  0.409E+00  0.610E+00  0.578E+01  0.501E+01  0.426E+01  0.373E+01
  0.282E+01  0.187E+01  0.131E+01  0.945E+00  0.692E+00  0.501E+00  0.351E+00
  0.241E+00  0.164E+00  0.110E+00  0.742E-01  0.495E-01  0.326E-01  0.214E-01
  0.139E-01  0.900E-02  0.579E-02  0.371E-02  0.231E-02  0.530E-05  0.169E-03
  0.407E-02  0.460E-01  0.887E-01  0.414E-01  0.626E-01  0.114E+00  0.292E+00
  0.106E+01  0.439E+01  0.373E+01  0.295E+01  0.234E+01  0.163E+01  0.109E+01
  0.759E+00  0.514E+00  0.355E+00  0.251E+00  0.178E+00  0.124E+00  0.861E-01
  0.590E-01  0.401E-01  0.270E-01  0.181E-01  0.120E-01  0.783E-02  0.507E-02
  0.326E-02  0.202E-02  0.120E-04  0.760E-04  0.112E-02  0.483E-02  0.118E-01
  0.349E-01  0.671E-01  0.118E+00  0.199E+00  0.446E+00  0.131E+01  0.326E+01
  0.218E+01  0.155E+01  0.112E+01  0.777E+00  0.559E+00  0.400E+00  0.275E+00
  0.185E+00  0.123E+00  0.826E-01  0.564E-01  0.387E-01  0.265E-01  0.180E-01
  0.122E-01  0.825E-02  0.549E-02  0.362E-02  0.236E-02  0.147E-02  0.136E-05
  0.159E-04  0.322E-03  0.249E-02  0.141E-01  0.401E-01  0.735E-01  0.112E+00
  0.150E+00  0.242E+00  0.457E+00  0.979E+00  0.141E+01  0.770E+00  0.593E+00
  0.431E+00  0.313E+00  0.234E+00  0.172E+00  0.121E+00  0.827E-01  0.554E-01
  0.363E-01  0.237E-01  0.155E-01  0.102E-01  0.675E-02  0.447E-02  0.294E-02
  0.193E-02  0.126E-02  0.785E-03  0.403E-08  0.108E-05  0.356E-04  0.560E-03
  0.363E-02  0.116E-01  0.297E-01  0.412E-01  0.427E-01  0.565E-01  0.809E-01
  0.143E+00  0.246E+00  0.249E+00  0.188E+00  0.162E+00  0.123E+00  0.912E-01
  0.663E-01  0.466E-01  0.327E-01  0.226E-01  0.151E-01  0.981E-02  0.622E-02
  0.389E-02  0.244E-02  0.155E-02  0.978E-03  0.626E-03  0.402E-03  0.249E-03
  0.415E-08  0.338E-06  0.104E-04  0.162E-03  0.127E-02  0.450E-02  0.165E-01
  0.239E-01  0.189E-01  0.134E-01  0.108E-01  0.110E-01  0.126E-01  0.150E-01
  0.157E-01  0.148E-01  0.137E-01  0.115E-01  0.913E-02  0.671E-02  0.469E-02
  0.316E-02  0.208E-02  0.133E-02  0.834E-03  0.504E-03  0.299E-03  0.175E-03
  0.101E-03  0.596E-04  0.357E-04  0.222E-04  0.316E-08  0.343E-06  0.136E-04
  0.283E-03  0.262E-02  0.106E-01  0.377E-01  0.529E-01  0.416E-01  0.266E-01
  0.198E-01  0.157E-01  0.135E-01  0.108E-01  0.810E-02  0.573E-02  0.394E-02
  0.254E-02  0.137E-02  0.611E-03  0.257E-03  0.113E-03  0.558E-04  0.321E-04
  0.191E-04  0.110E-04  0.620E-05  0.343E-05  0.176E-05  0.907E-06  0.472E-06
  0.293E-06  0.435E-08  0.517E-06  0.236E-04  0.548E-03  0.550E-02  0.239E-01
  0.882E-01  0.124E+00  0.970E-01  0.609E-01  0.451E-01  0.367E-01  0.320E-01
  0.257E-01  0.190E-01  0.130E-01  0.818E-02  0.476E-02  0.225E-02  0.812E-03
  0.219E-03  0.391E-04  0.570E-05  0.827E-06  0.302E-06  0.167E-06  0.929E-07
  0.517E-07  0.274E-07  0.146E-07  0.789E-08  0.490E-08  0.580E-08  0.701E-06
  0.324E-04  0.758E-03  0.718E-02  0.309E-01  0.111E+00  0.149E+00  0.112E+00
  0.691E-01  0.517E-01  0.432E-01  0.380E-01  0.309E-01  0.232E-01  0.154E-01
  0.947E-02  0.520E-02  0.238E-02  0.805E-03  0.204E-03  0.344E-04  0.347E-05
  0.216E-06  0.967E-09  0.401E-09  0.192E-09  0.963E-10  0.521E-10  0.283E-10
  0.155E-10  0.962E-11  0.452E-08  0.537E-06  0.242E-04  0.552E-03  0.510E-02
  0.214E-01  0.748E-01  0.982E-01  0.745E-01  0.481E-01  0.372E-01  0.313E-01
  0.273E-01  0.217E-01  0.158E-01  0.101E-01  0.585E-02  0.299E-02  0.125E-02
  0.408E-03  0.993E-04  0.149E-04  0.105E-05  0.379E-07  0.460E-10  0.280E-11
  0.239E-12  0.309E-13  0.480E-14  0.988E-15  0.305E-15  0.189E-15  0.234E-08
  0.254E-06  0.998E-05  0.209E-03  0.176E-02  0.681E-02  0.234E-01  0.306E-01
  0.265E-01  0.207E-01  0.170E-01  0.147E-01  0.122E-01  0.836E-02  0.486E-02
  0.254E-02  0.117E-02  0.415E-03  0.104E-03  0.179E-04  0.254E-05  0.102E-06
  0.771E-08  0.458E-09  0.230E-10  0.156E-12  0.699E-14  0.106E-14  0.703E-15
  0.154E-14  0.271E-15  0.168E-15  0.914E-09  0.767E-07  0.190E-05  0.286E-04
  0.156E-03  0.353E-03  0.116E-02  0.219E-02  0.353E-02  0.440E-02  0.390E-02
  0.288E-02  0.200E-02  0.116E-02  0.403E-03  0.680E-04  0.868E-05  0.118E-05
  0.416E-06  0.269E-06  0.193E-06  0.834E-07  0.276E-07  0.736E-08  0.143E-08
  0.244E-09  0.430E-10  0.676E-11  0.340E-11  0.179E-11  0.959E-12  0.595E-12
  0.162E-08  0.995E-07  0.200E-05  0.239E-04  0.106E-03  0.226E-03  0.509E-03
  0.936E-03  0.162E-02  0.245E-02  0.274E-02  0.232E-02  0.173E-02  0.102E-02
  0.406E-03  0.109E-03  0.558E-04  0.498E-04  0.412E-04  0.269E-04  0.138E-04
  0.564E-05  0.192E-05  0.577E-06  0.161E-06  0.439E-07  0.139E-07  0.593E-08
  0.353E-08  0.172E-08  0.746E-09  0.463E-09  0.509E-08  0.317E-06  0.660E-05
  0.826E-04  0.392E-03  0.780E-03  0.178E-02  0.310E-02  0.651E-02  0.119E-01
  0.144E-01  0.126E-01  0.107E-01  0.757E-02  0.416E-02  0.196E-02  0.119E-02
  0.926E-03  0.709E-03  0.459E-03  0.258E-03  0.137E-03  0.729E-04  0.446E-04
  0.329E-04  0.242E-04  0.151E-04  0.758E-05  0.307E-05  0.101E-05  0.278E-06
  0.173E-06  0.879E-08  0.574E-06  0.126E-04  0.171E-03  0.882E-03  0.182E-02
  0.441E-02  0.726E-02  0.135E-01  0.235E-01  0.297E-01  0.257E-01  0.220E-01
  0.179E-01  0.132E-01  0.951E-02  0.810E-02  0.810E-02  0.707E-02  0.550E-02
  0.431E-02  0.367E-02  0.311E-02  0.235E-02  0.155E-02  0.900E-03  0.464E-03
  0.213E-03  0.877E-04  0.333E-04  0.120E-04  0.746E-05  0.858E-08  0.502E-06
  0.116E-04  0.166E-03  0.989E-03  0.247E-02  0.668E-02  0.104E-01  0.137E-01
  0.209E-01  0.295E-01  0.276E-01  0.250E-01  0.248E-01  0.262E-01  0.311E-01
  0.410E-01  0.485E-01  0.476E-01  0.447E-01  0.379E-01  0.285E-01  0.196E-01
  0.125E-01  0.747E-02  0.419E-02  0.222E-02  0.112E-02  0.549E-03  0.272E-03
  0.137E-03  0.849E-04  0.121E-07  0.679E-06  0.207E-04  0.378E-03  0.324E-02
  0.110E-01  0.363E-01  0.566E-01  0.559E-01  0.589E-01  0.720E-01  0.774E-01
  0.800E-01  0.102E+00  0.134E+00  0.180E+00  0.217E+00  0.212E+00  0.177E+00
  0.134E+00  0.950E-01  0.637E-01  0.409E-01  0.253E-01  0.151E-01  0.874E-02
  0.505E-02  0.293E-02  0.170E-02  0.102E-02  0.616E-03  0.382E-03  0.198E-07
  0.167E-05  0.693E-04  0.151E-02  0.110E-01  0.211E-01  0.542E-01  0.819E-01
  0.828E-01  0.967E-01  0.146E+00  0.290E+00  0.555E+00  0.783E+00  0.835E+00
  0.754E+00  0.590E+00  0.433E+00  0.308E+00  0.211E+00  0.139E+00  0.892E-01
  0.556E-01  0.344E-01  0.214E-01  0.133E-01  0.841E-02  0.538E-02  0.344E-02
  0.222E-02  0.144E-02  0.895E-03  0.703E-07  0.893E-05  0.456E-03  0.988E-02
  0.530E-01  0.418E-01  0.496E-01  0.700E-01  0.109E+00  0.301E+00  0.820E+00
  0.159E+01  0.208E+01  0.213E+01  0.177E+01  0.125E+01  0.856E+00  0.580E+00
  0.385E+00  0.249E+00  0.159E+00  0.102E+00  0.664E-01  0.436E-01  0.289E-01
  0.192E-01  0.129E-01  0.861E-02  0.571E-02  0.377E-02  0.247E-02  0.154E-02
  0.136E-06  0.273E-04  0.178E-02  0.408E-01  0.238E+00  0.646E+00  0.199E+01
  0.554E+01  0.565E+01  0.467E+01  0.435E+01  0.431E+01  0.376E+01  0.303E+01
  0.228E+01  0.153E+01  0.995E+00  0.649E+00  0.427E+00  0.284E+00  0.191E+00
  0.129E+00  0.877E-01  0.596E-01  0.404E-01  0.272E-01  0.183E-01  0.122E-01
  0.802E-02  0.523E-02  0.338E-02  0.210E-02  0.222E-06  0.374E-04  0.309E-02
  0.117E+00  0.152E+01  0.667E+01  0.268E+02  0.493E+02  0.322E+02  0.157E+02
  0.816E+01  0.578E+01  0.476E+01  0.362E+01  0.249E+01  0.166E+01  0.111E+01
  0.754E+00  0.516E+00  0.351E+00  0.237E+00  0.160E+00  0.108E+00  0.730E-01
  0.491E-01  0.328E-01  0.217E-01  0.143E-01  0.929E-02  0.599E-02  0.385E-02
  0.239E-02  0.276E-06  0.457E-04  0.343E-02  0.108E+00  0.154E+01  0.107E+02
  0.412E+02  0.575E+02  0.335E+02  0.196E+02  0.111E+02  0.634E+01  0.465E+01
  0.347E+01  0.245E+01  0.171E+01  0.121E+01  0.841E+00  0.587E+00  0.403E+00
  0.272E+00  0.183E+00  0.122E+00  0.809E-01  0.534E-01  0.350E-01  0.229E-01
  0.149E-01  0.964E-02  0.621E-02  0.400E-02  0.248E-02
20080312 210000
'W0052N489 '  48.90  -5.20      99.9  10.48 267.7   0.00 270.0
  0.483E-06  0.381E-04  0.220E-02  0.647E-01  0.107E+01  0.551E+01  0.194E+02
  0.401E+02  0.285E+02  0.128E+02  0.662E+01  0.509E+01  0.383E+01  0.282E+01
  0.199E+01  0.141E+01  0.101E+01  0.739E+00  0.537E+00  0.380E+00  0.261E+00
  0.176E+00  0.117E+00  0.774E-01  0.508E-01  0.331E-01  0.215E-01  0.139E-01
  0.893E-02  0.574E-02  0.369E-02  0.229E-02  0.340E-06  0.618E-04  0.445E-02
  0.118E+00  0.139E+01  0.266E+01  0.140E+01  0.417E+00  0.124E+02  0.835E+01
  0.532E+01  0.442E+01  0.359E+01  0.270E+01  0.191E+01  0.136E+01  0.991E+00
  0.730E+00  0.528E+00  0.371E+00  0.255E+00  0.172E+00  0.115E+00  0.761E-01
  0.499E-01  0.325E-01  0.211E-01  0.137E-01  0.879E-02  0.565E-02  0.364E-02
  0.226E-02  0.550E-06  0.640E-04  0.344E-02  0.683E-01  0.500E+00  0.379E+00
  0.165E+00  0.325E+00  0.180E+00  0.399E+01  0.417E+01  0.361E+01  0.327E+01
  0.266E+01  0.182E+01  0.122E+01  0.870E+00  0.636E+00  0.462E+00  0.326E+00
  0.223E+00  0.151E+00  0.102E+00  0.685E-01  0.457E-01  0.303E-01  0.199E-01
  0.130E-01  0.843E-02  0.544E-02  0.350E-02  0.217E-02  0.112E-04  0.567E-04
  0.171E-02  0.237E-01  0.779E-01  0.399E-01  0.462E-01  0.720E-01  0.177E+00
  0.497E+00  0.251E+01  0.319E+01  0.262E+01  0.216E+01  0.157E+01  0.107E+01
  0.743E+00  0.511E+00  0.351E+00  0.244E+00  0.170E+00  0.118E+00  0.810E-01
  0.553E-01  0.376E-01  0.253E-01  0.170E-01  0.113E-01  0.740E-02  0.482E-02
  0.311E-02  0.193E-02  0.354E-04  0.696E-04  0.686E-03  0.472E-02  0.148E-01
  0.415E-01  0.750E-01  0.101E+00  0.131E+00  0.244E+00  0.619E+00  0.185E+01
  0.208E+01  0.141E+01  0.107E+01  0.762E+00  0.553E+00  0.403E+00  0.284E+00
  0.192E+00  0.128E+00  0.853E-01  0.575E-01  0.390E-01  0.264E-01  0.179E-01
  0.121E-01  0.813E-02  0.541E-02  0.357E-02  0.233E-02  0.145E-02  0.336E-05
  0.277E-04  0.460E-03  0.364E-02  0.185E-01  0.513E-01  0.894E-01  0.112E+00
  0.110E+00  0.145E+00  0.262E+00  0.543E+00  0.106E+01  0.771E+00  0.546E+00
  0.416E+00  0.310E+00  0.238E+00  0.182E+00  0.132E+00  0.928E-01  0.631E-01
  0.418E-01  0.274E-01  0.179E-01  0.117E-01  0.762E-02  0.497E-02  0.322E-02
  0.210E-02  0.136E-02  0.846E-03  0.239E-08  0.192E-05  0.629E-04  0.720E-03
  0.427E-02  0.142E-01  0.298E-01  0.411E-01  0.343E-01  0.375E-01  0.534E-01
  0.906E-01  0.169E+00  0.220E+00  0.178E+00  0.148E+00  0.121E+00  0.937E-01
  0.721E-01  0.552E-01  0.419E-01  0.310E-01  0.218E-01  0.147E-01  0.951E-02
  0.600E-02  0.376E-02  0.235E-02  0.145E-02  0.899E-03  0.560E-03  0.348E-03
  0.246E-08  0.915E-07  0.337E-05  0.785E-04  0.820E-03  0.352E-02  0.131E-01
  0.232E-01  0.176E-01  0.117E-01  0.903E-02  0.892E-02  0.994E-02  0.121E-01
  0.137E-01  0.134E-01  0.129E-01  0.116E-01  0.101E-01  0.848E-02  0.687E-02
  0.543E-02  0.420E-02  0.312E-02  0.216E-02  0.140E-02  0.862E-03  0.510E-03
  0.292E-03  0.169E-03  0.965E-04  0.599E-04  0.133E-08  0.880E-07  0.497E-05
  0.121E-03  0.146E-02  0.650E-02  0.259E-01  0.486E-01  0.359E-01  0.226E-01
  0.158E-01  0.126E-01  0.113E-01  0.917E-02  0.694E-02  0.493E-02  0.346E-02
  0.239E-02  0.156E-02  0.895E-03  0.474E-03  0.260E-03  0.159E-03  0.110E-03
  0.785E-04  0.546E-04  0.361E-04  0.217E-04  0.118E-04  0.617E-05  0.309E-05
  0.192E-05  0.168E-08  0.130E-06  0.811E-05  0.235E-03  0.304E-02  0.145E-01
  0.599E-01  0.113E+00  0.822E-01  0.509E-01  0.350E-01  0.287E-01  0.260E-01
  0.214E-01  0.160E-01  0.109E-01  0.714E-02  0.428E-02  0.236E-02  0.102E-02
  0.345E-03  0.835E-04  0.161E-04  0.398E-05  0.147E-05  0.747E-06  0.384E-06
  0.200E-06  0.103E-06  0.537E-07  0.277E-07  0.172E-07  0.195E-08  0.175E-06
  0.111E-04  0.325E-03  0.394E-02  0.185E-01  0.742E-01  0.135E+00  0.942E-01
  0.566E-01  0.391E-01  0.328E-01  0.298E-01  0.249E-01  0.192E-01  0.132E-01
  0.838E-02  0.487E-02  0.249E-02  0.102E-02  0.307E-03  0.694E-04  0.924E-05
  0.828E-06  0.316E-07  0.831E-08  0.373E-08  0.167E-08  0.866E-09  0.456E-09
  0.242E-09  0.151E-09  0.136E-08  0.132E-06  0.832E-05  0.238E-03  0.278E-02
  0.128E-01  0.503E-01  0.885E-01  0.616E-01  0.378E-01  0.269E-01  0.226E-01
  0.207E-01  0.173E-01  0.133E-01  0.899E-02  0.550E-02  0.301E-02  0.138E-02
  0.520E-03  0.150E-03  0.311E-04  0.293E-05  0.187E-06  0.267E-09  0.106E-10
  0.123E-11  0.292E-12  0.130E-12  0.672E-13  0.358E-13  0.222E-13  0.514E-09
  0.606E-07  0.349E-05  0.922E-04  0.990E-03  0.436E-02  0.169E-01  0.268E-01
  0.212E-01  0.145E-01  0.116E-01  0.998E-02  0.912E-02  0.726E-02  0.509E-02
  0.286E-02  0.148E-02  0.628E-03  0.188E-03  0.387E-04  0.544E-05  0.519E-06
  0.163E-07  0.111E-08  0.745E-10  0.223E-11  0.109E-13  0.104E-14  0.109E-14
  0.226E-14  0.264E-15  0.164E-15  0.135E-09  0.196E-07  0.747E-06  0.145E-04
  0.113E-03  0.385E-03  0.141E-02  0.153E-02  0.251E-02  0.284E-02  0.302E-02
  0.264E-02  0.204E-02  0.137E-02  0.632E-03  0.158E-03  0.223E-04  0.382E-05
  0.465E-06  0.845E-07  0.292E-07  0.148E-07  0.475E-08  0.120E-08  0.268E-09
  0.425E-10  0.711E-11  0.997E-12  0.517E-12  0.275E-12  0.149E-12  0.925E-13
  0.538E-09  0.396E-07  0.102E-05  0.151E-04  0.784E-04  0.166E-03  0.393E-03
  0.677E-03  0.113E-02  0.186E-02  0.235E-02  0.211E-02  0.163E-02  0.107E-02
  0.477E-03  0.135E-03  0.353E-04  0.215E-04  0.156E-04  0.100E-04  0.531E-05
  0.228E-05  0.790E-06  0.233E-06  0.614E-07  0.149E-07  0.364E-08  0.930E-09
  0.565E-09  0.326E-09  0.174E-09  0.108E-09  0.236E-08  0.121E-06  0.327E-05
  0.500E-04  0.295E-03  0.588E-03  0.134E-02  0.229E-02  0.442E-02  0.859E-02
  0.115E-01  0.102E-01  0.886E-02  0.677E-02  0.399E-02  0.178E-02  0.824E-03
  0.537E-03  0.365E-03  0.226E-03  0.119E-03  0.552E-04  0.249E-04  0.116E-04
  0.637E-05  0.454E-05  0.336E-05  0.203E-05  0.943E-06  0.335E-06  0.941E-07
  0.584E-07  0.535E-08  0.197E-06  0.589E-05  0.976E-04  0.647E-03  0.139E-02
  0.337E-02  0.550E-02  0.920E-02  0.166E-01  0.234E-01  0.204E-01  0.171E-01
  0.141E-01  0.106E-01  0.708E-02  0.482E-02  0.425E-02  0.369E-02  0.267E-02
  0.185E-02  0.137E-02  0.116E-02  0.101E-02  0.765E-03  0.492E-03  0.271E-03
  0.128E-03  0.523E-04  0.189E-04  0.621E-05  0.385E-05  0.119E-07  0.182E-06
  0.540E-05  0.908E-04  0.680E-03  0.178E-02  0.497E-02  0.849E-02  0.987E-02
  0.145E-01  0.226E-01  0.215E-01  0.180E-01  0.164E-01  0.158E-01  0.163E-01
  0.187E-01  0.231E-01  0.242E-01  0.227E-01  0.214E-01  0.182E-01  0.136E-01
  0.918E-02  0.568E-02  0.324E-02  0.171E-02  0.843E-03  0.394E-03  0.182E-03
  0.844E-04  0.524E-04  0.324E-07  0.260E-06  0.913E-05  0.187E-03  0.199E-02
  0.741E-02  0.261E-01  0.484E-01  0.436E-01  0.417E-01  0.509E-01  0.558E-01
  0.511E-01  0.582E-01  0.721E-01  0.878E-01  0.112E+00  0.127E+00  0.121E+00
  0.997E-01  0.742E-01  0.517E-01  0.342E-01  0.216E-01  0.130E-01  0.749E-02
  0.423E-02  0.237E-02  0.133E-02  0.760E-03  0.442E-03  0.275E-03  0.291E-07
  0.484E-06  0.224E-04  0.557E-03  0.734E-02  0.135E-01  0.382E-01  0.686E-01
  0.627E-01  0.646E-01  0.846E-01  0.135E+00  0.275E+00  0.469E+00  0.545E+00
  0.518E+00  0.441E+00  0.343E+00  0.254E+00  0.180E+00  0.122E+00  0.794E-01
  0.502E-01  0.309E-01  0.189E-01  0.115E-01  0.712E-02  0.445E-02  0.278E-02
  0.177E-02  0.114E-02  0.708E-03  0.231E-07  0.251E-05  0.148E-03  0.385E-02
  0.394E-01  0.277E-01  0.340E-01  0.477E-01  0.650E-01  0.131E+00  0.340E+00
  0.787E+00  0.134E+01  0.157E+01  0.140E+01  0.104E+01  0.729E+00  0.510E+00
  0.347E+00  0.228E+00  0.145E+00  0.910E-01  0.578E-01  0.373E-01  0.244E-01
  0.161E-01  0.106E-01  0.707E-02  0.469E-02  0.312E-02  0.206E-02  0.128E-02
  0.216E-07  0.706E-05  0.658E-03  0.181E-01  0.146E+00  0.346E+00  0.827E+00
  0.438E+01  0.425E+01  0.317E+01  0.298E+01  0.323E+01  0.299E+01  0.257E+01
  0.197E+01  0.134E+01  0.884E+00  0.582E+00  0.376E+00  0.243E+00  0.160E+00
  0.107E+00  0.726E-01  0.497E-01  0.340E-01  0.231E-01  0.157E-01  0.106E-01
  0.701E-02  0.461E-02  0.300E-02  0.187E-02  0.383E-06  0.282E-04  0.128E-02
  0.531E-01  0.774E+00  0.365E+01  0.149E+02  0.442E+02  0.273E+02  0.137E+02
  0.692E+01  0.485E+01  0.400E+01  0.318E+01  0.217E+01  0.140E+01  0.913E+00
  0.619E+00  0.428E+00  0.296E+00  0.202E+00  0.137E+00  0.935E-01  0.637E-01
  0.433E-01  0.292E-01  0.195E-01  0.129E-01  0.845E-02  0.547E-02  0.352E-02
  0.219E-02  0.681E-06  0.344E-04  0.122E-02  0.476E-01  0.770E+00  0.654E+01
  0.284E+02  0.547E+02  0.325E+02  0.189E+02  0.963E+01  0.567E+01  0.416E+01
  0.303E+01  0.205E+01  0.140E+01  0.981E+00  0.698E+00  0.497E+00  0.348E+00
  0.238E+00  0.162E+00  0.110E+00  0.737E-01  0.491E-01  0.324E-01  0.212E-01
  0.138E-01  0.893E-02  0.574E-02  0.368E-02  0.229E-02
