'WAVEWATCH III SPECTRA'     32    24     1 'MULTIGRID GLOBAL05+OTHERS     '
 0.373E-01 0.410E-01 0.451E-01 0.496E-01 0.546E-01 0.601E-01 0.661E-01 0.727E-01
 0.800E-01 0.880E-01 0.967E-01 0.106E+00 0.117E+00 0.129E+00 0.142E+00 0.156E+00
 0.171E+00 0.189E+00 0.207E+00 0.228E+00 0.251E+00 0.276E+00 0.304E+00 0.334E+00
 0.367E+00 0.404E+00 0.445E+00 0.489E+00 0.538E+00 0.592E+00 0.651E+00 0.716E+00
  0.157E+01  0.131E+01  0.105E+01  0.785E+00  0.524E+00  0.262E+00  0.000E+00
  0.602E+01  0.576E+01  0.550E+01  0.524E+01  0.497E+01  0.471E+01  0.445E+01
  0.419E+01  0.393E+01  0.367E+01  0.340E+01  0.314E+01  0.288E+01  0.262E+01
  0.236E+01  0.209E+01  0.183E+01
20080310 000000
'W006N476  '  47.60  -6.00     148.2  20.63 217.1   0.00 270.0
  0.310E-05  0.340E-03  0.160E-01  0.376E+00  0.400E+01  0.143E+02  0.216E+02
  0.165E+02  0.220E+02  0.238E+02  0.195E+02  0.141E+02  0.869E+01  0.455E+01
  0.236E+01  0.159E+01  0.130E+01  0.954E+00  0.678E+00  0.491E+00  0.337E+00
  0.223E+00  0.149E+00  0.985E-01  0.637E-01  0.410E-01  0.263E-01  0.168E-01
  0.107E-01  0.681E-02  0.434E-02  0.270E-02  0.337E-05  0.441E-03  0.219E-01
  0.391E+00  0.303E+01  0.463E+01  0.247E+01  0.111E+01  0.223E+01  0.143E+02
  0.222E+02  0.176E+02  0.119E+02  0.774E+01  0.421E+01  0.241E+01  0.179E+01
  0.131E+01  0.875E+00  0.586E+00  0.397E+00  0.263E+00  0.175E+00  0.116E+00
  0.755E-01  0.489E-01  0.319E-01  0.207E-01  0.133E-01  0.857E-02  0.551E-02
  0.342E-02  0.434E-05  0.496E-03  0.196E-01  0.233E+00  0.887E+00  0.489E+00
  0.252E+00  0.349E+00  0.777E+00  0.342E+01  0.174E+02  0.232E+02  0.149E+02
  0.100E+02  0.628E+01  0.350E+01  0.218E+01  0.151E+01  0.994E+00  0.636E+00
  0.414E+00  0.271E+00  0.179E+00  0.120E+00  0.802E-01  0.530E-01  0.349E-01
  0.231E-01  0.151E-01  0.980E-02  0.635E-02  0.394E-02  0.397E-05  0.356E-03
  0.848E-02  0.513E-01  0.563E-01  0.140E-01  0.582E-01  0.256E+00  0.646E+00
  0.163E+01  0.573E+01  0.188E+02  0.181E+02  0.973E+01  0.675E+01  0.443E+01
  0.261E+01  0.167E+01  0.107E+01  0.659E+00  0.421E+00  0.276E+00  0.181E+00
  0.119E+00  0.801E-01  0.536E-01  0.359E-01  0.240E-01  0.158E-01  0.104E-01
  0.676E-02  0.420E-02  0.209E-05  0.113E-03  0.132E-02  0.336E-02  0.111E-01
  0.387E-01  0.989E-01  0.238E+00  0.722E+00  0.155E+01  0.330E+01  0.788E+01
  0.150E+02  0.969E+01  0.550E+01  0.413E+01  0.282E+01  0.182E+01  0.119E+01
  0.733E+00  0.444E+00  0.284E+00  0.185E+00  0.121E+00  0.796E-01  0.526E-01
  0.348E-01  0.232E-01  0.154E-01  0.101E-01  0.663E-02  0.412E-02  0.289E-06
  0.884E-05  0.134E-03  0.179E-02  0.110E-01  0.438E-01  0.107E+00  0.179E+00
  0.373E+00  0.103E+01  0.156E+01  0.261E+01  0.496E+01  0.763E+01  0.453E+01
  0.309E+01  0.246E+01  0.171E+01  0.118E+01  0.790E+00  0.496E+00  0.308E+00
  0.196E+00  0.124E+00  0.794E-01  0.513E-01  0.333E-01  0.216E-01  0.141E-01
  0.920E-02  0.602E-02  0.374E-02  0.951E-08  0.101E-05  0.509E-04  0.924E-03
  0.701E-02  0.321E-01  0.784E-01  0.114E+00  0.130E+00  0.339E+00  0.575E+00
  0.625E+00  0.963E+00  0.177E+01  0.264E+01  0.203E+01  0.169E+01  0.136E+01
  0.958E+00  0.676E+00  0.466E+00  0.310E+00  0.202E+00  0.129E+00  0.807E-01
  0.504E-01  0.317E-01  0.201E-01  0.127E-01  0.811E-02  0.521E-02  0.323E-02
  0.545E-08  0.583E-06  0.242E-04  0.444E-03  0.393E-02  0.199E-01  0.480E-01
  0.741E-01  0.565E-01  0.681E-01  0.147E+00  0.165E+00  0.179E+00  0.280E+00
  0.497E+00  0.724E+00  0.721E+00  0.710E+00  0.603E+00  0.448E+00  0.328E+00
  0.232E+00  0.160E+00  0.110E+00  0.726E-01  0.463E-01  0.290E-01  0.181E-01
  0.111E-01  0.690E-02  0.430E-02  0.267E-02  0.432E-08  0.397E-06  0.152E-04
  0.250E-03  0.266E-02  0.149E-01  0.486E-01  0.824E-01  0.502E-01  0.260E-01
  0.251E-01  0.360E-01  0.421E-01  0.587E-01  0.946E-01  0.144E+00  0.183E+00
  0.182E+00  0.174E+00  0.163E+00  0.142E+00  0.115E+00  0.869E-01  0.631E-01
  0.447E-01  0.307E-01  0.205E-01  0.133E-01  0.834E-02  0.513E-02  0.312E-02
  0.194E-02  0.368E-08  0.320E-06  0.878E-05  0.120E-03  0.106E-02  0.634E-02
  0.269E-01  0.571E-01  0.425E-01  0.235E-01  0.119E-01  0.810E-02  0.852E-02
  0.104E-01  0.166E-01  0.238E-01  0.300E-01  0.318E-01  0.306E-01  0.297E-01
  0.279E-01  0.254E-01  0.235E-01  0.207E-01  0.168E-01  0.128E-01  0.936E-02
  0.658E-02  0.444E-02  0.288E-02  0.178E-02  0.110E-02  0.402E-08  0.332E-06
  0.890E-05  0.803E-04  0.533E-03  0.169E-02  0.457E-02  0.103E-01  0.932E-02
  0.714E-02  0.430E-02  0.310E-02  0.222E-02  0.173E-02  0.190E-02  0.274E-02
  0.337E-02  0.359E-02  0.352E-02  0.332E-02  0.307E-02  0.267E-02  0.222E-02
  0.185E-02  0.160E-02  0.149E-02  0.139E-02  0.120E-02  0.971E-03  0.733E-03
  0.511E-03  0.317E-03  0.106E-07  0.998E-06  0.347E-04  0.365E-03  0.154E-02
  0.276E-02  0.285E-02  0.439E-02  0.366E-02  0.306E-02  0.234E-02  0.223E-02
  0.183E-02  0.128E-02  0.833E-03  0.554E-03  0.335E-03  0.245E-03  0.260E-03
  0.267E-03  0.246E-03  0.207E-03  0.158E-03  0.113E-03  0.783E-04  0.538E-04
  0.381E-04  0.275E-04  0.230E-04  0.205E-04  0.184E-04  0.114E-04  0.233E-07
  0.248E-05  0.102E-03  0.142E-02  0.871E-02  0.193E-01  0.206E-01  0.156E-01
  0.839E-02  0.461E-02  0.295E-02  0.233E-02  0.200E-02  0.163E-02  0.124E-02
  0.770E-03  0.330E-03  0.853E-04  0.158E-04  0.743E-05  0.909E-05  0.101E-04
  0.912E-05  0.717E-05  0.512E-05  0.336E-05  0.207E-05  0.116E-05  0.651E-06
  0.373E-06  0.220E-06  0.137E-06  0.232E-07  0.266E-05  0.120E-03  0.193E-02
  0.149E-01  0.418E-01  0.593E-01  0.565E-01  0.368E-01  0.228E-01  0.152E-01
  0.118E-01  0.976E-02  0.742E-02  0.523E-02  0.301E-02  0.122E-02  0.289E-03
  0.369E-04  0.242E-05  0.867E-07  0.295E-07  0.391E-07  0.539E-07  0.624E-07
  0.607E-07  0.505E-07  0.357E-07  0.196E-07  0.109E-07  0.604E-08  0.375E-08
  0.103E-07  0.126E-05  0.639E-04  0.115E-02  0.975E-02  0.314E-01  0.524E-01
  0.576E-01  0.414E-01  0.274E-01  0.185E-01  0.139E-01  0.110E-01  0.795E-02
  0.528E-02  0.287E-02  0.114E-02  0.267E-03  0.333E-04  0.205E-05  0.465E-07
  0.177E-09  0.960E-11  0.829E-11  0.706E-11  0.732E-11  0.825E-11  0.951E-11
  0.528E-11  0.295E-11  0.165E-11  0.103E-11  0.238E-08  0.290E-06  0.153E-04
  0.290E-03  0.245E-02  0.853E-02  0.161E-01  0.204E-01  0.152E-01  0.102E-01
  0.681E-02  0.491E-02  0.365E-02  0.250E-02  0.159E-02  0.852E-03  0.340E-03
  0.821E-04  0.109E-04  0.753E-06  0.215E-07  0.219E-09  0.417E-12  0.612E-14
  0.108E-14  0.249E-15  0.117E-15  0.745E-16  0.343E-16  0.178E-16  0.983E-17
  0.610E-17  0.103E-08  0.108E-06  0.420E-05  0.524E-04  0.378E-03  0.127E-02
  0.212E-02  0.270E-02  0.215E-02  0.156E-02  0.119E-02  0.107E-02  0.112E-02
  0.109E-02  0.876E-03  0.610E-03  0.322E-03  0.101E-03  0.186E-04  0.224E-05
  0.240E-06  0.273E-07  0.244E-08  0.123E-09  0.258E-11  0.184E-13  0.742E-14
  0.340E-14  0.195E-14  0.112E-14  0.639E-15  0.397E-15  0.266E-08  0.309E-06
  0.129E-04  0.174E-03  0.139E-02  0.587E-02  0.102E-01  0.119E-01  0.101E-01
  0.687E-02  0.459E-02  0.381E-02  0.346E-02  0.345E-02  0.328E-02  0.296E-02
  0.224E-02  0.101E-02  0.288E-03  0.852E-04  0.223E-04  0.353E-05  0.341E-06
  0.225E-07  0.276E-08  0.105E-08  0.496E-09  0.228E-09  0.121E-09  0.654E-10
  0.357E-10  0.221E-10  0.343E-07  0.225E-05  0.359E-04  0.261E-03  0.273E-02
  0.118E-01  0.154E-01  0.161E-01  0.140E-01  0.109E-01  0.955E-02  0.102E-01
  0.113E-01  0.136E-01  0.179E-01  0.227E-01  0.215E-01  0.125E-01  0.480E-02
  0.146E-02  0.331E-03  0.577E-04  0.941E-05  0.179E-05  0.564E-06  0.249E-06
  0.119E-06  0.572E-07  0.304E-07  0.164E-07  0.893E-08  0.555E-08  0.412E-06
  0.292E-04  0.581E-03  0.680E-02  0.506E-01  0.571E-01  0.410E-01  0.439E-01
  0.498E-01  0.492E-01  0.617E-01  0.946E-01  0.139E+00  0.198E+00  0.251E+00
  0.229E+00  0.140E+00  0.592E-01  0.211E-01  0.715E-02  0.215E-02  0.630E-03
  0.210E-03  0.820E-04  0.356E-04  0.168E-04  0.862E-05  0.453E-05  0.246E-05
  0.136E-05  0.748E-06  0.464E-06  0.154E-05  0.131E-03  0.388E-02  0.547E-01
  0.308E+00  0.289E+00  0.434E+00  0.120E+01  0.221E+01  0.180E+01  0.156E+01
  0.162E+01  0.135E+01  0.957E+00  0.679E+00  0.476E+00  0.297E+00  0.140E+00
  0.583E-01  0.266E-01  0.129E-01  0.653E-02  0.346E-02  0.201E-02  0.120E-02
  0.717E-03  0.445E-03  0.276E-03  0.167E-03  0.988E-04  0.570E-04  0.354E-04
  0.287E-05  0.303E-03  0.135E-01  0.312E+00  0.255E+01  0.547E+01  0.903E+01
  0.204E+02  0.202E+02  0.990E+01  0.565E+01  0.360E+01  0.226E+01  0.148E+01
  0.959E+00  0.619E+00  0.422E+00  0.268E+00  0.154E+00  0.880E-01  0.544E-01
  0.350E-01  0.218E-01  0.141E-01  0.928E-02  0.596E-02  0.379E-02  0.239E-02
  0.148E-02  0.891E-03  0.528E-03  0.328E-03  0.344E-05  0.374E-03  0.174E-01
  0.394E+00  0.357E+01  0.113E+02  0.342E+02  0.584E+02  0.356E+02  0.230E+02
  0.152E+02  0.735E+01  0.327E+01  0.166E+01  0.117E+01  0.869E+00  0.605E+00
  0.430E+00  0.309E+00  0.200E+00  0.129E+00  0.884E-01  0.590E-01  0.384E-01
  0.253E-01  0.164E-01  0.104E-01  0.660E-02  0.413E-02  0.255E-02  0.157E-02
  0.974E-03  0.327E-05  0.353E-03  0.160E-01  0.340E+00  0.316E+01  0.165E+02
  0.488E+02  0.609E+02  0.442E+02  0.327E+02  0.216E+02  0.121E+02  0.563E+01
  0.251E+01  0.149E+01  0.117E+01  0.889E+00  0.625E+00  0.470E+00  0.337E+00
  0.225E+00  0.152E+00  0.103E+00  0.679E-01  0.440E-01  0.284E-01  0.181E-01
  0.115E-01  0.728E-02  0.460E-02  0.289E-02  0.179E-02
20080310 030000
'W006N476  '  47.60  -6.00     148.2  20.33 244.9   0.00 270.0
  0.366E-05  0.408E-03  0.186E-01  0.369E+00  0.359E+01  0.117E+02  0.235E+02
  0.436E+02  0.608E+02  0.484E+02  0.245E+02  0.152E+02  0.844E+01  0.510E+01
  0.403E+01  0.309E+01  0.212E+01  0.150E+01  0.103E+01  0.674E+00  0.443E+00
  0.293E+00  0.189E+00  0.121E+00  0.784E-01  0.505E-01  0.327E-01  0.213E-01
  0.138E-01  0.894E-02  0.581E-02  0.361E-02  0.368E-05  0.443E-03  0.209E-01
  0.391E+00  0.309E+01  0.478E+01  0.398E+01  0.828E+01  0.372E+02  0.539E+02
  0.279E+02  0.187E+02  0.120E+02  0.677E+01  0.468E+01  0.360E+01  0.237E+01
  0.152E+01  0.101E+01  0.664E+00  0.433E+00  0.288E+00  0.190E+00  0.124E+00
  0.815E-01  0.537E-01  0.352E-01  0.232E-01  0.151E-01  0.984E-02  0.639E-02
  0.397E-02  0.402E-05  0.437E-03  0.173E-01  0.239E+00  0.110E+01  0.110E+01
  0.117E+01  0.199E+01  0.123E+02  0.457E+02  0.362E+02  0.203E+02  0.139E+02
  0.903E+01  0.528E+01  0.374E+01  0.246E+01  0.153E+01  0.972E+00  0.636E+00
  0.416E+00  0.277E+00  0.185E+00  0.123E+00  0.819E-01  0.547E-01  0.364E-01
  0.241E-01  0.158E-01  0.102E-01  0.662E-02  0.411E-02  0.347E-05  0.286E-03
  0.708E-02  0.552E-01  0.107E+00  0.177E+00  0.924E+00  0.180E+01  0.468E+01
  0.189E+02  0.424E+02  0.222E+02  0.127E+02  0.983E+01  0.619E+01  0.380E+01
  0.253E+01  0.156E+01  0.959E+00  0.621E+00  0.406E+00  0.266E+00  0.177E+00
  0.118E+00  0.787E-01  0.525E-01  0.350E-01  0.232E-01  0.152E-01  0.989E-02
  0.640E-02  0.397E-02  0.185E-05  0.872E-04  0.110E-02  0.394E-02  0.154E-01
  0.756E-01  0.592E+00  0.202E+01  0.380E+01  0.835E+01  0.216E+02  0.248E+02
  0.101E+02  0.748E+01  0.571E+01  0.373E+01  0.244E+01  0.159E+01  0.962E+00
  0.609E+00  0.396E+00  0.256E+00  0.166E+00  0.109E+00  0.714E-01  0.471E-01
  0.312E-01  0.206E-01  0.135E-01  0.878E-02  0.570E-02  0.354E-02  0.284E-06
  0.812E-05  0.150E-03  0.200E-02  0.139E-01  0.487E-01  0.235E+00  0.126E+01
  0.288E+01  0.344E+01  0.640E+01  0.105E+02  0.873E+01  0.458E+01  0.378E+01
  0.289E+01  0.197E+01  0.136E+01  0.903E+00  0.570E+00  0.366E+00  0.235E+00
  0.149E+00  0.948E-01  0.607E-01  0.389E-01  0.252E-01  0.165E-01  0.107E-01
  0.697E-02  0.453E-02  0.282E-02  0.135E-07  0.162E-05  0.688E-04  0.105E-02
  0.764E-02  0.285E-01  0.973E-01  0.411E+00  0.136E+01  0.151E+01  0.168E+01
  0.268E+01  0.386E+01  0.293E+01  0.212E+01  0.186E+01  0.133E+01  0.935E+00
  0.665E+00  0.451E+00  0.296E+00  0.192E+00  0.120E+00  0.747E-01  0.464E-01
  0.289E-01  0.181E-01  0.115E-01  0.728E-02  0.466E-02  0.301E-02  0.187E-02
  0.766E-08  0.735E-06  0.285E-04  0.493E-03  0.384E-02  0.179E-01  0.517E-01
  0.110E+00  0.301E+00  0.474E+00  0.464E+00  0.544E+00  0.907E+00  0.126E+01
  0.114E+01  0.929E+00  0.797E+00  0.571E+00  0.407E+00  0.292E+00  0.202E+00
  0.136E+00  0.889E-01  0.557E-01  0.340E-01  0.205E-01  0.123E-01  0.734E-02
  0.438E-02  0.266E-02  0.163E-02  0.101E-02  0.531E-08  0.499E-06  0.191E-04
  0.329E-03  0.274E-02  0.157E-01  0.504E-01  0.885E-01  0.704E-01  0.871E-01
  0.995E-01  0.105E+00  0.158E+00  0.254E+00  0.340E+00  0.325E+00  0.283E+00
  0.237E+00  0.179E+00  0.133E+00  0.962E-01  0.675E-01  0.466E-01  0.311E-01
  0.198E-01  0.121E-01  0.707E-02  0.400E-02  0.219E-02  0.120E-02  0.654E-03
  0.406E-03  0.422E-08  0.372E-06  0.107E-04  0.156E-03  0.134E-02  0.705E-02
  0.273E-01  0.598E-01  0.472E-01  0.285E-01  0.194E-01  0.196E-01  0.255E-01
  0.386E-01  0.522E-01  0.560E-01  0.482E-01  0.407E-01  0.339E-01  0.266E-01
  0.205E-01  0.153E-01  0.111E-01  0.798E-02  0.552E-02  0.363E-02  0.225E-02
  0.128E-02  0.671E-03  0.329E-03  0.152E-03  0.947E-04  0.408E-08  0.351E-06
  0.984E-05  0.103E-03  0.724E-03  0.224E-02  0.475E-02  0.105E-01  0.981E-02
  0.766E-02  0.487E-02  0.425E-02  0.425E-02  0.515E-02  0.629E-02  0.609E-02
  0.493E-02  0.376E-02  0.285E-02  0.202E-02  0.131E-02  0.848E-03  0.572E-03
  0.406E-03  0.295E-03  0.213E-03  0.149E-03  0.968E-04  0.564E-04  0.285E-04
  0.124E-04  0.768E-05  0.102E-07  0.951E-06  0.323E-04  0.368E-03  0.162E-02
  0.304E-02  0.335E-02  0.465E-02  0.401E-02  0.333E-02  0.253E-02  0.220E-02
  0.183E-02  0.137E-02  0.881E-03  0.586E-03  0.388E-03  0.277E-03  0.192E-03
  0.119E-03  0.650E-04  0.322E-04  0.152E-04  0.706E-05  0.321E-05  0.146E-05
  0.727E-06  0.397E-06  0.261E-06  0.159E-06  0.842E-07  0.523E-07  0.222E-07
  0.232E-05  0.926E-04  0.138E-02  0.878E-02  0.194E-01  0.231E-01  0.171E-01
  0.909E-02  0.564E-02  0.428E-02  0.376E-02  0.316E-02  0.237E-02  0.135E-02
  0.477E-03  0.970E-04  0.159E-04  0.662E-05  0.423E-05  0.235E-05  0.117E-05
  0.543E-06  0.231E-06  0.862E-07  0.286E-07  0.932E-08  0.276E-08  0.144E-08
  0.771E-09  0.418E-09  0.260E-09  0.221E-07  0.247E-05  0.107E-03  0.183E-02
  0.147E-01  0.415E-01  0.663E-01  0.617E-01  0.387E-01  0.266E-01  0.205E-01
  0.174E-01  0.145E-01  0.103E-01  0.547E-02  0.171E-02  0.272E-03  0.197E-04
  0.522E-06  0.151E-07  0.524E-08  0.285E-08  0.138E-08  0.622E-09  0.244E-09
  0.827E-10  0.272E-10  0.691E-11  0.341E-11  0.174E-11  0.915E-12  0.568E-12
  0.987E-08  0.118E-05  0.564E-04  0.108E-02  0.951E-02  0.308E-01  0.575E-01
  0.626E-01  0.428E-01  0.304E-01  0.234E-01  0.197E-01  0.158E-01  0.105E-01
  0.517E-02  0.154E-02  0.230E-03  0.135E-04  0.336E-06  0.434E-08  0.189E-10
  0.187E-12  0.310E-13  0.912E-14  0.325E-14  0.122E-14  0.455E-15  0.145E-15
  0.502E-16  0.198E-16  0.993E-17  0.616E-17  0.233E-08  0.273E-06  0.133E-04
  0.264E-03  0.235E-02  0.828E-02  0.176E-01  0.216E-01  0.154E-01  0.112E-01
  0.847E-02  0.670E-02  0.485E-02  0.297E-02  0.140E-02  0.395E-03  0.490E-04
  0.286E-05  0.951E-07  0.161E-08  0.102E-10  0.837E-13  0.472E-13  0.317E-13
  0.185E-13  0.114E-13  0.697E-14  0.446E-14  0.255E-14  0.147E-14  0.847E-15
  0.526E-15  0.110E-08  0.113E-06  0.428E-05  0.561E-04  0.395E-03  0.132E-02
  0.240E-02  0.291E-02  0.214E-02  0.161E-02  0.120E-02  0.882E-03  0.733E-03
  0.569E-03  0.303E-03  0.922E-04  0.144E-04  0.116E-05  0.527E-07  0.231E-08
  0.105E-08  0.110E-08  0.117E-08  0.121E-08  0.118E-08  0.102E-08  0.781E-09
  0.528E-09  0.299E-09  0.170E-09  0.966E-10  0.600E-10  0.180E-08  0.238E-06
  0.112E-04  0.169E-03  0.137E-02  0.570E-02  0.116E-01  0.133E-01  0.966E-02
  0.601E-02  0.346E-02  0.215E-02  0.146E-02  0.109E-02  0.669E-03  0.257E-03
  0.559E-04  0.842E-05  0.225E-05  0.183E-05  0.167E-05  0.148E-05  0.125E-05
  0.954E-06  0.668E-06  0.430E-06  0.257E-06  0.145E-06  0.809E-07  0.455E-07
  0.257E-07  0.159E-07  0.736E-07  0.471E-05  0.633E-04  0.308E-03  0.301E-02
  0.107E-01  0.158E-01  0.167E-01  0.120E-01  0.800E-02  0.535E-02  0.397E-02
  0.336E-02  0.322E-02  0.294E-02  0.202E-02  0.969E-03  0.498E-03  0.239E-03
  0.122E-03  0.790E-04  0.541E-04  0.377E-04  0.255E-04  0.167E-04  0.106E-04
  0.670E-05  0.423E-05  0.273E-05  0.181E-05  0.122E-05  0.759E-06  0.659E-06
  0.493E-04  0.111E-02  0.135E-01  0.859E-01  0.675E-01  0.355E-01  0.305E-01
  0.256E-01  0.216E-01  0.272E-01  0.423E-01  0.636E-01  0.931E-01  0.106E+00
  0.684E-01  0.275E-01  0.118E-01  0.542E-02  0.297E-02  0.193E-02  0.135E-02
  0.102E-02  0.772E-03  0.611E-03  0.491E-03  0.394E-03  0.311E-03  0.235E-03
  0.168E-03  0.113E-03  0.702E-04  0.169E-05  0.157E-03  0.543E-02  0.982E-01
  0.570E+00  0.548E+00  0.890E+00  0.178E+01  0.209E+01  0.131E+01  0.105E+01
  0.104E+01  0.903E+00  0.714E+00  0.556E+00  0.329E+00  0.158E+00  0.868E-01
  0.544E-01  0.395E-01  0.287E-01  0.216E-01  0.170E-01  0.129E-01  0.969E-02
  0.713E-02  0.503E-02  0.345E-02  0.228E-02  0.147E-02  0.916E-03  0.569E-03
  0.284E-05  0.320E-03  0.163E-01  0.386E+00  0.338E+01  0.763E+01  0.137E+02
  0.266E+02  0.214E+02  0.846E+01  0.400E+01  0.264E+01  0.201E+01  0.147E+01
  0.107E+01  0.718E+00  0.487E+00  0.333E+00  0.231E+00  0.175E+00  0.128E+00
  0.923E-01  0.666E-01  0.464E-01  0.317E-01  0.215E-01  0.142E-01  0.927E-02
  0.592E-02  0.375E-02  0.235E-02  0.146E-02  0.351E-05  0.395E-03  0.190E-01
  0.397E+00  0.385E+01  0.137E+02  0.446E+02  0.739E+02  0.455E+02  0.252E+02
  0.109E+02  0.433E+01  0.260E+01  0.210E+01  0.172E+01  0.128E+01  0.104E+01
  0.793E+00  0.550E+00  0.398E+00  0.282E+00  0.192E+00  0.131E+00  0.875E-01
  0.572E-01  0.370E-01  0.239E-01  0.153E-01  0.969E-02  0.617E-02  0.391E-02
  0.243E-02  0.362E-05  0.404E-03  0.180E-01  0.335E+00  0.304E+01  0.135E+02
  0.556E+02  0.865E+02  0.656E+02  0.436E+02  0.193E+02  0.804E+01  0.443E+01
  0.345E+01  0.311E+01  0.233E+01  0.172E+01  0.128E+01  0.863E+00  0.589E+00
  0.405E+00  0.270E+00  0.174E+00  0.113E+00  0.722E-01  0.460E-01  0.295E-01
  0.190E-01  0.121E-01  0.778E-02  0.502E-02  0.312E-02
20080310 060000
'W006N476  '  47.60  -6.00     148.2  20.03 272.7   0.00 270.0
  0.250E-04  0.235E-02  0.811E-01  0.102E+01  0.636E+01  0.187E+02  0.593E+02
  0.107E+03  0.954E+02  0.470E+02  0.264E+02  0.177E+02  0.109E+02  0.796E+01
  0.552E+01  0.353E+01  0.227E+01  0.149E+01  0.966E+00  0.638E+00  0.424E+00
  0.279E+00  0.183E+00  0.121E+00  0.805E-01  0.533E-01  0.354E-01  0.234E-01
  0.153E-01  0.997E-02  0.648E-02  0.402E-02  0.262E-04  0.246E-02  0.850E-01
  0.109E+01  0.564E+01  0.821E+01  0.123E+02  0.378E+02  0.770E+02  0.400E+02
  0.237E+02  0.176E+02  0.114E+02  0.758E+01  0.543E+01  0.346E+01  0.217E+01
  0.143E+01  0.941E+00  0.621E+00  0.415E+00  0.276E+00  0.183E+00  0.122E+00
  0.809E-01  0.535E-01  0.353E-01  0.232E-01  0.151E-01  0.975E-02  0.630E-02
  0.391E-02  0.238E-04  0.198E-02  0.578E-01  0.683E+00  0.284E+01  0.404E+01
  0.384E+01  0.697E+01  0.312E+02  0.423E+02  0.208E+02  0.147E+02  0.112E+02
  0.736E+01  0.503E+01  0.334E+01  0.209E+01  0.135E+01  0.894E+00  0.593E+00
  0.394E+00  0.262E+00  0.173E+00  0.115E+00  0.758E-01  0.499E-01  0.327E-01
  0.214E-01  0.138E-01  0.892E-02  0.573E-02  0.356E-02  0.155E-04  0.948E-03
  0.189E-01  0.166E+00  0.615E+00  0.179E+01  0.287E+01  0.348E+01  0.103E+02
  0.282E+02  0.229E+02  0.117E+02  0.944E+01  0.668E+01  0.427E+01  0.288E+01
  0.189E+01  0.120E+01  0.792E+00  0.524E+00  0.343E+00  0.225E+00  0.148E+00
  0.972E-01  0.638E-01  0.419E-01  0.274E-01  0.179E-01  0.116E-01  0.746E-02
  0.480E-02  0.298E-02  0.554E-05  0.223E-03  0.220E-02  0.900E-02  0.428E-01
  0.454E+00  0.208E+01  0.359E+01  0.541E+01  0.118E+02  0.219E+02  0.107E+02
  0.676E+01  0.535E+01  0.353E+01  0.227E+01  0.152E+01  0.973E+00  0.628E+00
  0.411E+00  0.265E+00  0.170E+00  0.110E+00  0.712E-01  0.463E-01  0.301E-01
  0.196E-01  0.128E-01  0.829E-02  0.536E-02  0.345E-02  0.215E-02  0.569E-06
  0.111E-04  0.173E-03  0.231E-02  0.176E-01  0.868E-01  0.700E+00  0.255E+01
  0.311E+01  0.399E+01  0.874E+01  0.969E+01  0.474E+01  0.337E+01  0.267E+01
  0.175E+01  0.117E+01  0.779E+00  0.500E+00  0.319E+00  0.202E+00  0.126E+00
  0.779E-01  0.485E-01  0.303E-01  0.191E-01  0.121E-01  0.771E-02  0.490E-02
  0.314E-02  0.200E-02  0.124E-02  0.170E-07  0.224E-05  0.913E-04  0.136E-02
  0.947E-02  0.309E-01  0.140E+00  0.760E+00  0.122E+01  0.129E+01  0.209E+01
  0.332E+01  0.327E+01  0.185E+01  0.152E+01  0.114E+01  0.773E+00  0.535E+00
  0.354E+00  0.225E+00  0.140E+00  0.855E-01  0.508E-01  0.300E-01  0.176E-01
  0.103E-01  0.606E-02  0.360E-02  0.215E-02  0.131E-02  0.802E-03  0.498E-03
  0.979E-08  0.965E-06  0.376E-04  0.594E-03  0.442E-02  0.160E-01  0.516E-01
  0.149E+00  0.283E+00  0.330E+00  0.413E+00  0.612E+00  0.905E+00  0.813E+00
  0.619E+00  0.525E+00  0.383E+00  0.263E+00  0.179E+00  0.115E+00  0.712E-01
  0.426E-01  0.245E-01  0.136E-01  0.729E-02  0.381E-02  0.196E-02  0.101E-02
  0.521E-03  0.276E-03  0.148E-03  0.922E-04  0.584E-08  0.550E-06  0.218E-04
  0.412E-03  0.333E-02  0.150E-01  0.512E-01  0.914E-01  0.815E-01  0.757E-01
  0.799E-01  0.979E-01  0.139E+00  0.163E+00  0.146E+00  0.120E+00  0.993E-01
  0.707E-01  0.463E-01  0.297E-01  0.181E-01  0.105E-01  0.588E-02  0.309E-02
  0.152E-02  0.699E-03  0.302E-03  0.124E-03  0.496E-04  0.198E-04  0.803E-05
  0.499E-05  0.444E-08  0.386E-06  0.121E-04  0.188E-03  0.179E-02  0.811E-02
  0.281E-01  0.604E-01  0.501E-01  0.332E-01  0.212E-01  0.180E-01  0.208E-01
  0.220E-01  0.201E-01  0.154E-01  0.107E-01  0.697E-02  0.394E-02  0.219E-02
  0.122E-02  0.657E-03  0.345E-03  0.170E-03  0.772E-04  0.321E-04  0.119E-04
  0.395E-05  0.119E-05  0.340E-06  0.100E-06  0.623E-07  0.406E-08  0.355E-06
  0.105E-04  0.118E-03  0.908E-03  0.296E-02  0.554E-02  0.109E-01  0.101E-01
  0.802E-02  0.551E-02  0.451E-02  0.381E-02  0.310E-02  0.227E-02  0.146E-02
  0.808E-03  0.389E-03  0.153E-03  0.510E-04  0.170E-04  0.586E-05  0.209E-05
  0.767E-06  0.279E-06  0.974E-07  0.315E-07  0.939E-08  0.301E-08  0.111E-08
  0.498E-09  0.309E-09  0.108E-07  0.971E-06  0.325E-04  0.365E-03  0.164E-02
  0.309E-02  0.418E-02  0.526E-02  0.488E-02  0.409E-02  0.313E-02  0.270E-02
  0.210E-02  0.117E-02  0.463E-03  0.164E-03  0.572E-04  0.199E-04  0.555E-05
  0.122E-05  0.246E-06  0.495E-07  0.972E-08  0.180E-08  0.321E-09  0.581E-10
  0.120E-10  0.263E-11  0.131E-11  0.672E-12  0.355E-12  0.220E-12  0.243E-07
  0.242E-05  0.944E-04  0.138E-02  0.866E-02  0.181E-01  0.270E-01  0.255E-01
  0.193E-01  0.171E-01  0.154E-01  0.135E-01  0.101E-01  0.507E-02  0.159E-02
  0.350E-03  0.475E-04  0.339E-05  0.128E-06  0.134E-07  0.136E-08  0.141E-09
  0.141E-10  0.126E-11  0.946E-13  0.607E-14  0.504E-15  0.106E-14  0.277E-15
  0.626E-16  0.158E-16  0.982E-17  0.252E-07  0.266E-05  0.112E-03  0.186E-02
  0.146E-01  0.385E-01  0.766E-01  0.905E-01  0.783E-01  0.745E-01  0.692E-01
  0.599E-01  0.430E-01  0.201E-01  0.590E-02  0.114E-02  0.123E-03  0.316E-05
  0.162E-07  0.478E-10  0.926E-12  0.459E-13  0.408E-14  0.344E-14  0.277E-14
  0.279E-14  0.632E-15  0.444E-15  0.209E-15  0.112E-15  0.638E-16  0.396E-16
  0.117E-07  0.132E-05  0.605E-04  0.110E-02  0.948E-02  0.287E-01  0.680E-01
  0.924E-01  0.841E-01  0.818E-01  0.728E-01  0.589E-01  0.393E-01  0.175E-01
  0.496E-02  0.900E-03  0.772E-04  0.149E-05  0.125E-07  0.848E-10  0.469E-10
  0.549E-10  0.637E-10  0.790E-10  0.102E-09  0.112E-09  0.105E-09  0.821E-10
  0.470E-10  0.269E-10  0.154E-10  0.954E-11  0.282E-08  0.315E-06  0.148E-04
  0.276E-03  0.238E-02  0.776E-02  0.210E-01  0.333E-01  0.301E-01  0.287E-01
  0.233E-01  0.165E-01  0.102E-01  0.433E-02  0.116E-02  0.188E-03  0.131E-04
  0.500E-06  0.132E-06  0.185E-06  0.276E-06  0.356E-06  0.378E-06  0.340E-06
  0.263E-06  0.179E-06  0.113E-06  0.652E-07  0.366E-07  0.206E-07  0.116E-07
  0.721E-08  0.112E-08  0.110E-06  0.411E-05  0.562E-04  0.399E-03  0.125E-02
  0.283E-02  0.402E-02  0.329E-02  0.276E-02  0.214E-02  0.138E-02  0.929E-03
  0.438E-03  0.134E-03  0.387E-04  0.270E-04  0.338E-04  0.398E-04  0.393E-04
  0.343E-04  0.270E-04  0.197E-04  0.136E-04  0.884E-05  0.541E-05  0.326E-05
  0.193E-05  0.116E-05  0.718E-06  0.450E-06  0.279E-06  0.533E-08  0.201E-06
  0.503E-05  0.149E-03  0.119E-02  0.453E-02  0.114E-01  0.138E-01  0.905E-02
  0.535E-02  0.330E-02  0.214E-02  0.144E-02  0.102E-02  0.813E-03  0.858E-03
  0.916E-03  0.924E-03  0.833E-03  0.673E-03  0.530E-03  0.411E-03  0.317E-03
  0.250E-03  0.200E-03  0.165E-03  0.144E-03  0.125E-03  0.102E-03  0.790E-04
  0.560E-04  0.348E-04  0.815E-06  0.372E-04  0.335E-03  0.668E-03  0.308E-02
  0.885E-02  0.153E-01  0.174E-01  0.120E-01  0.889E-02  0.843E-02  0.923E-02
  0.107E-01  0.119E-01  0.128E-01  0.135E-01  0.134E-01  0.127E-01  0.116E-01
  0.100E-01  0.896E-02  0.805E-02  0.741E-02  0.683E-02  0.587E-02  0.467E-02
  0.351E-02  0.249E-02  0.168E-02  0.110E-02  0.686E-03  0.426E-03  0.720E-05
  0.471E-03  0.102E-01  0.636E-01  0.165E+00  0.877E-01  0.315E-01  0.205E-01
  0.214E-01  0.309E-01  0.594E-01  0.960E-01  0.151E+00  0.204E+00  0.204E+00
  0.181E+00  0.160E+00  0.139E+00  0.120E+00  0.102E+00  0.875E-01  0.700E-01
  0.529E-01  0.384E-01  0.269E-01  0.184E-01  0.123E-01  0.803E-02  0.511E-02
  0.322E-02  0.200E-02  0.124E-02  0.192E-04  0.180E-02  0.569E-01  0.520E+00
  0.157E+01  0.163E+01  0.213E+01  0.225E+01  0.186E+01  0.109E+01  0.125E+01
  0.146E+01  0.144E+01  0.142E+01  0.122E+01  0.924E+00  0.710E+00  0.585E+00
  0.461E+00  0.343E+00  0.248E+00  0.174E+00  0.118E+00  0.799E-01  0.531E-01
  0.346E-01  0.223E-01  0.142E-01  0.898E-02  0.568E-02  0.360E-02  0.223E-02
  0.168E-04  0.197E-02  0.872E-01  0.146E+01  0.819E+01  0.196E+02  0.298E+02
  0.363E+02  0.227E+02  0.776E+01  0.478E+01  0.435E+01  0.375E+01  0.333E+01
  0.289E+01  0.236E+01  0.168E+01  0.119E+01  0.841E+00  0.574E+00  0.387E+00
  0.257E+00  0.167E+00  0.107E+00  0.687E-01  0.439E-01  0.281E-01  0.180E-01
  0.115E-01  0.742E-02  0.478E-02  0.297E-02  0.164E-04  0.174E-02  0.735E-01
  0.134E+01  0.107E+02  0.469E+02  0.925E+02  0.102E+03  0.569E+02  0.259E+02
  0.117E+02  0.798E+01  0.726E+01  0.622E+01  0.443E+01  0.328E+01  0.225E+01
  0.150E+01  0.102E+01  0.676E+00  0.436E+00  0.279E+00  0.179E+00  0.114E+00
  0.735E-01  0.477E-01  0.311E-01  0.203E-01  0.132E-01  0.861E-02  0.562E-02
  0.349E-02  0.185E-04  0.176E-02  0.642E-01  0.974E+00  0.725E+01  0.358E+02
  0.110E+03  0.130E+03  0.893E+02  0.544E+02  0.256E+02  0.130E+02  0.954E+01
  0.762E+01  0.528E+01  0.359E+01  0.240E+01  0.155E+01  0.101E+01  0.663E+00
  0.429E+00  0.277E+00  0.180E+00  0.118E+00  0.773E-01  0.509E-01  0.336E-01
  0.222E-01  0.146E-01  0.953E-02  0.623E-02  0.387E-02
20080310 090000
'W006N476  '  47.60  -6.00     148.2  21.15 274.5   0.00 270.0
  0.502E-03  0.269E-01  0.511E+00  0.399E+01  0.212E+02  0.598E+02  0.139E+03
  0.148E+03  0.735E+02  0.419E+02  0.284E+02  0.193E+02  0.130E+02  0.862E+01
  0.536E+01  0.341E+01  0.225E+01  0.148E+01  0.986E+00  0.658E+00  0.438E+00
  0.292E+00  0.195E+00  0.130E+00  0.867E-01  0.575E-01  0.380E-01  0.250E-01
  0.163E-01  0.105E-01  0.681E-02  0.423E-02  0.573E-03  0.317E-01  0.623E+00
  0.458E+01  0.165E+02  0.229E+02  0.333E+02  0.683E+02  0.630E+02  0.316E+02
  0.230E+02  0.170E+02  0.116E+02  0.812E+01  0.540E+01  0.341E+01  0.226E+01
  0.150E+01  0.997E+00  0.666E+00  0.442E+00  0.292E+00  0.193E+00  0.128E+00
  0.843E-01  0.554E-01  0.364E-01  0.238E-01  0.154E-01  0.999E-02  0.645E-02
  0.400E-02  0.531E-03  0.262E-01  0.461E+00  0.322E+01  0.913E+01  0.843E+01
  0.679E+01  0.124E+02  0.315E+02  0.259E+02  0.172E+02  0.143E+02  0.106E+02
  0.705E+01  0.488E+01  0.324E+01  0.214E+01  0.144E+01  0.959E+00  0.632E+00
  0.417E+00  0.273E+00  0.179E+00  0.117E+00  0.767E-01  0.501E-01  0.327E-01
  0.213E-01  0.138E-01  0.893E-02  0.576E-02  0.358E-02  0.335E-03  0.124E-01
  0.159E+00  0.893E+00  0.238E+01  0.318E+01  0.310E+01  0.383E+01  0.110E+02
  0.230E+02  0.141E+02  0.984E+01  0.813E+01  0.560E+01  0.379E+01  0.262E+01
  0.177E+01  0.119E+01  0.804E+00  0.530E+00  0.347E+00  0.227E+00  0.148E+00
  0.967E-01  0.631E-01  0.411E-01  0.268E-01  0.174E-01  0.113E-01  0.729E-02
  0.471E-02  0.292E-02  0.992E-04  0.261E-02  0.177E-01  0.491E-01  0.137E+00
  0.674E+00  0.168E+01  0.294E+01  0.461E+01  0.107E+02  0.168E+02  0.820E+01
  0.572E+01  0.413E+01  0.271E+01  0.182E+01  0.125E+01  0.831E+00  0.555E+00
  0.367E+00  0.240E+00  0.156E+00  0.102E+00  0.663E-01  0.432E-01  0.281E-01
  0.183E-01  0.119E-01  0.767E-02  0.495E-02  0.319E-02  0.198E-02  0.667E-05
  0.692E-04  0.319E-03  0.225E-02  0.192E-01  0.863E-01  0.539E+00  0.153E+01
  0.207E+01  0.323E+01  0.718E+01  0.699E+01  0.356E+01  0.266E+01  0.188E+01
  0.124E+01  0.839E+00  0.554E+00  0.359E+00  0.232E+00  0.148E+00  0.945E-01
  0.601E-01  0.382E-01  0.242E-01  0.154E-01  0.981E-02  0.626E-02  0.397E-02
  0.253E-02  0.161E-02  0.997E-03  0.327E-07  0.223E-05  0.978E-04  0.160E-02
  0.112E-01  0.304E-01  0.115E+00  0.473E+00  0.721E+00  0.943E+00  0.157E+01
  0.232E+01  0.187E+01  0.111E+01  0.926E+00  0.651E+00  0.440E+00  0.293E+00
  0.185E+00  0.114E+00  0.701E-01  0.425E-01  0.256E-01  0.154E-01  0.925E-02
  0.553E-02  0.333E-02  0.201E-02  0.122E-02  0.743E-03  0.453E-03  0.281E-03
  0.169E-07  0.139E-05  0.484E-04  0.734E-03  0.526E-02  0.153E-01  0.450E-01
  0.126E+00  0.201E+00  0.260E+00  0.323E+00  0.419E+00  0.470E+00  0.329E+00
  0.254E+00  0.205E+00  0.137E+00  0.855E-01  0.518E-01  0.303E-01  0.171E-01
  0.942E-02  0.507E-02  0.271E-02  0.145E-02  0.768E-03  0.411E-03  0.220E-03
  0.118E-03  0.648E-04  0.358E-04  0.222E-04  0.142E-07  0.905E-06  0.267E-04
  0.471E-03  0.431E-02  0.151E-01  0.488E-01  0.881E-01  0.773E-01  0.707E-01
  0.691E-01  0.700E-01  0.686E-01  0.560E-01  0.402E-01  0.285E-01  0.186E-01
  0.996E-02  0.508E-02  0.255E-02  0.123E-02  0.585E-03  0.268E-03  0.117E-03
  0.503E-04  0.215E-04  0.938E-05  0.417E-05  0.188E-05  0.879E-06  0.421E-06
  0.262E-06  0.128E-07  0.788E-06  0.162E-04  0.212E-03  0.220E-02  0.982E-02
  0.287E-01  0.585E-01  0.502E-01  0.364E-01  0.236E-01  0.154E-01  0.106E-01
  0.683E-02  0.435E-02  0.251E-02  0.115E-02  0.411E-03  0.126E-03  0.436E-04
  0.156E-04  0.561E-05  0.208E-05  0.797E-06  0.326E-06  0.142E-06  0.669E-07
  0.332E-07  0.177E-07  0.967E-08  0.534E-08  0.332E-08  0.175E-07  0.983E-06
  0.184E-04  0.135E-03  0.103E-02  0.357E-02  0.711E-02  0.114E-01  0.103E-01
  0.825E-02  0.584E-02  0.422E-02  0.240E-02  0.109E-02  0.479E-03  0.199E-03
  0.646E-04  0.135E-04  0.189E-05  0.280E-06  0.615E-07  0.176E-07  0.576E-08
  0.204E-08  0.763E-09  0.295E-09  0.123E-09  0.527E-10  0.288E-10  0.159E-10
  0.885E-11  0.549E-11  0.631E-07  0.395E-05  0.926E-04  0.799E-03  0.271E-02
  0.457E-02  0.699E-02  0.726E-02  0.640E-02  0.533E-02  0.427E-02  0.327E-02
  0.189E-02  0.685E-03  0.189E-03  0.442E-04  0.784E-05  0.881E-06  0.564E-07
  0.351E-08  0.203E-09  0.125E-10  0.795E-12  0.136E-12  0.285E-13  0.674E-14
  0.165E-14  0.137E-14  0.740E-15  0.277E-15  0.122E-15  0.755E-16  0.163E-06
  0.117E-04  0.315E-03  0.341E-02  0.155E-01  0.321E-01  0.575E-01  0.594E-01
  0.516E-01  0.414E-01  0.332E-01  0.236E-01  0.113E-01  0.376E-02  0.960E-03
  0.194E-03  0.238E-04  0.127E-05  0.810E-08  0.792E-10  0.160E-11  0.836E-13
  0.631E-14  0.200E-15  0.111E-14  0.160E-15  0.209E-16  0.832E-15  0.195E-15
  0.403E-16  0.831E-17  0.516E-17  0.186E-06  0.140E-04  0.405E-03  0.500E-02
  0.273E-01  0.715E-01  0.164E+00  0.205E+00  0.202E+00  0.172E+00  0.135E+00
  0.929E-01  0.446E-01  0.147E-01  0.356E-02  0.655E-03  0.652E-04  0.108E-05
  0.207E-08  0.235E-10  0.840E-11  0.739E-11  0.769E-11  0.759E-11  0.603E-11
  0.412E-11  0.242E-11  0.105E-11  0.601E-12  0.343E-12  0.195E-12  0.121E-12
  0.945E-07  0.753E-05  0.237E-03  0.310E-02  0.184E-01  0.565E-01  0.147E+00
  0.200E+00  0.207E+00  0.174E+00  0.126E+00  0.809E-01  0.380E-01  0.124E-01
  0.297E-02  0.508E-03  0.378E-04  0.573E-06  0.134E-06  0.181E-06  0.201E-06
  0.178E-06  0.126E-06  0.750E-07  0.385E-07  0.175E-07  0.760E-08  0.305E-08
  0.168E-08  0.932E-09  0.520E-09  0.323E-09  0.247E-07  0.196E-05  0.631E-04
  0.835E-03  0.494E-02  0.166E-01  0.468E-01  0.668E-01  0.645E-01  0.503E-01
  0.324E-01  0.200E-01  0.928E-02  0.297E-02  0.688E-03  0.122E-03  0.469E-04
  0.433E-04  0.383E-04  0.291E-04  0.197E-04  0.121E-04  0.687E-05  0.363E-05
  0.185E-05  0.911E-06  0.453E-06  0.227E-06  0.131E-06  0.756E-07  0.431E-07
  0.268E-07  0.395E-08  0.286E-06  0.815E-05  0.108E-03  0.607E-03  0.200E-02
  0.529E-02  0.726E-02  0.699E-02  0.632E-02  0.458E-02  0.266E-02  0.157E-02
  0.109E-02  0.109E-02  0.113E-02  0.111E-02  0.916E-03  0.671E-03  0.465E-03
  0.312E-03  0.211E-03  0.145E-03  0.105E-03  0.825E-04  0.681E-04  0.560E-04
  0.422E-04  0.283E-04  0.168E-04  0.886E-05  0.550E-05  0.678E-07  0.844E-06
  0.881E-05  0.194E-03  0.145E-02  0.417E-02  0.125E-01  0.215E-01  0.223E-01
  0.238E-01  0.232E-01  0.183E-01  0.134E-01  0.124E-01  0.136E-01  0.142E-01
  0.138E-01  0.121E-01  0.101E-01  0.860E-02  0.762E-02  0.705E-02  0.628E-02
  0.519E-02  0.398E-02  0.282E-02  0.186E-02  0.115E-02  0.664E-03  0.366E-03
  0.194E-03  0.120E-03  0.870E-05  0.229E-03  0.131E-02  0.410E-02  0.662E-02
  0.109E-01  0.188E-01  0.313E-01  0.381E-01  0.493E-01  0.692E-01  0.891E-01
  0.996E-01  0.115E+00  0.133E+00  0.141E+00  0.142E+00  0.134E+00  0.123E+00
  0.104E+00  0.810E-01  0.604E-01  0.431E-01  0.295E-01  0.194E-01  0.123E-01
  0.757E-02  0.455E-02  0.267E-02  0.157E-02  0.926E-03  0.575E-03  0.106E-03
  0.473E-02  0.536E-01  0.205E+00  0.250E+00  0.143E+00  0.608E-01  0.825E-01
  0.147E+00  0.241E+00  0.418E+00  0.588E+00  0.794E+00  0.954E+00  0.958E+00
  0.870E+00  0.723E+00  0.553E+00  0.413E+00  0.299E+00  0.208E+00  0.141E+00
  0.932E-01  0.599E-01  0.379E-01  0.236E-01  0.147E-01  0.913E-02  0.566E-02
  0.356E-02  0.225E-02  0.139E-02  0.381E-03  0.209E-01  0.330E+00  0.164E+01
  0.295E+01  0.362E+01  0.464E+01  0.335E+01  0.264E+01  0.254E+01  0.364E+01
  0.374E+01  0.366E+01  0.349E+01  0.277E+01  0.203E+01  0.151E+01  0.109E+01
  0.757E+00  0.514E+00  0.338E+00  0.217E+00  0.139E+00  0.880E-01  0.557E-01
  0.354E-01  0.226E-01  0.146E-01  0.935E-02  0.605E-02  0.393E-02  0.244E-02
  0.360E-03  0.248E-01  0.610E+00  0.487E+01  0.196E+02  0.401E+02  0.577E+02
  0.446E+02  0.228E+02  0.115E+02  0.103E+02  0.945E+01  0.770E+01  0.627E+01
  0.476E+01  0.327E+01  0.223E+01  0.150E+01  0.981E+00  0.632E+00  0.405E+00
  0.257E+00  0.163E+00  0.105E+00  0.680E-01  0.442E-01  0.289E-01  0.190E-01
  0.124E-01  0.813E-02  0.531E-02  0.330E-02  0.416E-03  0.218E-01  0.503E+00
  0.527E+01  0.383E+02  0.100E+03  0.147E+03  0.116E+03  0.670E+02  0.308E+02
  0.186E+02  0.151E+02  0.120E+02  0.831E+01  0.557E+01  0.368E+01  0.237E+01
  0.155E+01  0.101E+01  0.647E+00  0.418E+00  0.272E+00  0.177E+00  0.117E+00
  0.770E-01  0.509E-01  0.337E-01  0.224E-01  0.147E-01  0.960E-02  0.625E-02
  0.388E-02  0.408E-03  0.202E-01  0.402E+00  0.379E+01  0.283E+02  0.104E+03
  0.197E+03  0.152E+03  0.951E+02  0.548E+02  0.288E+02  0.179E+02  0.132E+02
  0.872E+01  0.559E+01  0.361E+01  0.229E+01  0.148E+01  0.983E+00  0.648E+00
  0.427E+00  0.283E+00  0.188E+00  0.125E+00  0.838E-01  0.558E-01  0.370E-01
  0.245E-01  0.160E-01  0.104E-01  0.676E-02  0.420E-02
20080310 120000
'W006N476  '  47.60  -6.00     148.2  22.21 276.4   0.00 270.0
  0.241E-01  0.433E+00  0.407E+01  0.205E+02  0.633E+02  0.145E+03  0.212E+03
  0.137E+03  0.723E+02  0.441E+02  0.301E+02  0.204E+02  0.138E+02  0.857E+01
  0.540E+01  0.351E+01  0.232E+01  0.154E+01  0.104E+01  0.691E+00  0.461E+00
  0.308E+00  0.206E+00  0.137E+00  0.911E-01  0.602E-01  0.396E-01  0.260E-01
  0.169E-01  0.109E-01  0.705E-02  0.438E-02  0.209E-01  0.414E+00  0.414E+01
  0.218E+02  0.470E+02  0.572E+02  0.621E+02  0.856E+02  0.514E+02  0.310E+02
  0.245E+02  0.181E+02  0.125E+02  0.858E+01  0.557E+01  0.363E+01  0.242E+01
  0.160E+01  0.106E+01  0.699E+00  0.459E+00  0.302E+00  0.199E+00  0.131E+00
  0.863E-01  0.567E-01  0.372E-01  0.244E-01  0.158E-01  0.103E-01  0.664E-02
  0.412E-02  0.166E-01  0.312E+00  0.286E+01  0.145E+02  0.209E+02  0.143E+02
  0.106E+02  0.189E+02  0.315E+02  0.209E+02  0.174E+02  0.146E+02  0.109E+02
  0.742E+01  0.513E+01  0.342E+01  0.231E+01  0.154E+01  0.101E+01  0.659E+00
  0.428E+00  0.277E+00  0.180E+00  0.118E+00  0.767E-01  0.501E-01  0.328E-01
  0.215E-01  0.140E-01  0.907E-02  0.588E-02  0.365E-02  0.895E-02  0.136E+00
  0.950E+00  0.387E+01  0.439E+01  0.285E+01  0.280E+01  0.423E+01  0.111E+02
  0.185E+02  0.122E+02  0.948E+01  0.754E+01  0.540E+01  0.381E+01  0.266E+01
  0.182E+01  0.124E+01  0.827E+00  0.542E+00  0.353E+00  0.228E+00  0.148E+00
  0.958E-01  0.622E-01  0.404E-01  0.263E-01  0.172E-01  0.111E-01  0.723E-02
  0.468E-02  0.291E-02  0.239E-02  0.266E-01  0.974E-01  0.196E+00  0.192E+00
  0.479E+00  0.975E+00  0.209E+01  0.395E+01  0.904E+01  0.129E+02  0.719E+01
  0.525E+01  0.361E+01  0.241E+01  0.169E+01  0.118E+01  0.806E+00  0.544E+00
  0.360E+00  0.236E+00  0.154E+00  0.999E-01  0.645E-01  0.416E-01  0.268E-01
  0.173E-01  0.112E-01  0.722E-02  0.466E-02  0.300E-02  0.186E-02  0.136E-03
  0.465E-03  0.875E-03  0.210E-02  0.209E-01  0.868E-01  0.371E+00  0.113E+01
  0.176E+01  0.268E+01  0.550E+01  0.508E+01  0.287E+01  0.218E+01  0.148E+01
  0.998E+00  0.677E+00  0.455E+00  0.306E+00  0.203E+00  0.133E+00  0.861E-01
  0.553E-01  0.352E-01  0.223E-01  0.140E-01  0.883E-02  0.556E-02  0.348E-02
  0.219E-02  0.138E-02  0.859E-03  0.361E-06  0.503E-05  0.101E-03  0.172E-02
  0.132E-01  0.317E-01  0.107E+00  0.465E+00  0.813E+00  0.914E+00  0.127E+01
  0.162E+01  0.109E+01  0.695E+00  0.576E+00  0.405E+00  0.272E+00  0.176E+00
  0.113E+00  0.719E-01  0.463E-01  0.296E-01  0.187E-01  0.117E-01  0.716E-02
  0.433E-02  0.260E-02  0.156E-02  0.920E-03  0.548E-03  0.326E-03  0.203E-03
  0.197E-06  0.473E-05  0.673E-04  0.852E-03  0.643E-02  0.173E-01  0.415E-01
  0.131E+00  0.285E+00  0.331E+00  0.314E+00  0.323E+00  0.266E+00  0.150E+00
  0.106E+00  0.767E-01  0.475E-01  0.285E-01  0.168E-01  0.972E-02  0.561E-02
  0.328E-02  0.194E-02  0.115E-02  0.674E-03  0.388E-03  0.220E-03  0.122E-03
  0.660E-04  0.355E-04  0.190E-04  0.118E-04  0.262E-06  0.625E-05  0.561E-04
  0.507E-03  0.526E-02  0.181E-01  0.469E-01  0.858E-01  0.905E-01  0.102E+00
  0.806E-01  0.604E-01  0.428E-01  0.248E-01  0.132E-01  0.690E-02  0.317E-02
  0.134E-02  0.622E-03  0.297E-03  0.144E-03  0.703E-04  0.346E-04  0.174E-04
  0.903E-05  0.470E-05  0.247E-05  0.129E-05  0.658E-06  0.335E-06  0.170E-06
  0.106E-06  0.286E-06  0.717E-05  0.650E-04  0.244E-03  0.236E-02  0.121E-01
  0.303E-01  0.567E-01  0.496E-01  0.391E-01  0.272E-01  0.156E-01  0.722E-02
  0.302E-02  0.127E-02  0.452E-03  0.119E-03  0.287E-04  0.947E-05  0.400E-05
  0.186E-05  0.895E-06  0.431E-06  0.209E-06  0.103E-06  0.501E-07  0.249E-07
  0.125E-07  0.689E-08  0.382E-08  0.213E-08  0.132E-08  0.434E-06  0.124E-04
  0.116E-03  0.277E-03  0.111E-02  0.358E-02  0.838E-02  0.117E-01  0.103E-01
  0.802E-02  0.587E-02  0.381E-02  0.163E-02  0.483E-03  0.133E-03  0.311E-04
  0.452E-05  0.399E-06  0.548E-07  0.157E-07  0.586E-08  0.235E-08  0.949E-09
  0.382E-09  0.153E-09  0.595E-10  0.241E-10  0.973E-11  0.534E-11  0.296E-11
  0.165E-11  0.102E-11  0.171E-05  0.521E-04  0.702E-03  0.351E-02  0.854E-02
  0.113E-01  0.120E-01  0.983E-02  0.756E-02  0.597E-02  0.475E-02  0.307E-02
  0.132E-02  0.359E-03  0.776E-04  0.130E-04  0.138E-05  0.105E-06  0.931E-08
  0.682E-09  0.571E-10  0.239E-11  0.663E-13  0.872E-14  0.172E-14  0.359E-15
  0.117E-15  0.881E-15  0.339E-15  0.870E-16  0.239E-16  0.148E-16  0.479E-05
  0.158E-03  0.237E-02  0.153E-01  0.540E-01  0.100E+00  0.122E+00  0.973E-01
  0.709E-01  0.490E-01  0.351E-01  0.176E-01  0.623E-02  0.177E-02  0.430E-03
  0.741E-04  0.679E-05  0.185E-06  0.101E-08  0.124E-10  0.576E-12  0.358E-13
  0.327E-14  0.163E-15  0.718E-15  0.107E-15  0.630E-16  0.649E-15  0.147E-15
  0.313E-16  0.681E-17  0.423E-17  0.571E-05  0.191E-03  0.303E-02  0.226E-01
  0.974E-01  0.228E+00  0.347E+00  0.324E+00  0.263E+00  0.187E+00  0.130E+00
  0.664E-01  0.244E-01  0.694E-02  0.163E-02  0.265E-03  0.192E-04  0.174E-06
  0.476E-09  0.135E-09  0.151E-09  0.164E-09  0.148E-09  0.888E-10  0.381E-10
  0.128E-10  0.401E-11  0.111E-11  0.633E-12  0.359E-12  0.204E-12  0.127E-12
  0.314E-05  0.104E-03  0.176E-02  0.141E-01  0.674E-01  0.181E+00  0.306E+00
  0.307E+00  0.255E+00  0.180E+00  0.116E+00  0.589E-01  0.216E-01  0.624E-02
  0.147E-02  0.228E-03  0.131E-04  0.184E-05  0.162E-05  0.131E-05  0.883E-06
  0.504E-06  0.246E-06  0.107E-06  0.436E-07  0.170E-07  0.675E-08  0.275E-08
  0.153E-08  0.854E-09  0.479E-09  0.297E-09  0.851E-06  0.275E-04  0.460E-03
  0.382E-02  0.184E-01  0.527E-01  0.939E-01  0.949E-01  0.725E-01  0.494E-01
  0.308E-01  0.158E-01  0.587E-02  0.178E-02  0.543E-03  0.253E-03  0.179E-03
  0.129E-03  0.863E-04  0.526E-04  0.296E-04  0.157E-04  0.802E-05  0.410E-05
  0.217E-05  0.118E-05  0.689E-06  0.417E-06  0.246E-06  0.133E-06  0.655E-07
  0.407E-07  0.125E-06  0.358E-05  0.555E-04  0.460E-03  0.214E-02  0.607E-02
  0.108E-01  0.122E-01  0.140E-01  0.159E-01  0.153E-01  0.960E-02  0.517E-02
  0.398E-02  0.374E-02  0.345E-02  0.274E-02  0.193E-02  0.134E-02  0.942E-03
  0.686E-03  0.543E-03  0.471E-03  0.412E-03  0.335E-03  0.244E-03  0.159E-03
  0.912E-04  0.460E-04  0.213E-04  0.932E-05  0.579E-05  0.945E-06  0.690E-05
  0.681E-04  0.998E-03  0.548E-02  0.134E-01  0.311E-01  0.493E-01  0.672E-01
  0.915E-01  0.931E-01  0.677E-01  0.458E-01  0.421E-01  0.435E-01  0.431E-01
  0.383E-01  0.329E-01  0.307E-01  0.288E-01  0.252E-01  0.201E-01  0.149E-01
  0.103E-01  0.668E-02  0.403E-02  0.230E-02  0.125E-02  0.662E-03  0.351E-03
  0.188E-03  0.117E-03  0.148E-03  0.934E-03  0.653E-02  0.155E-01  0.195E-01
  0.318E-01  0.579E-01  0.993E-01  0.145E+00  0.209E+00  0.285E+00  0.319E+00
  0.333E+00  0.383E+00  0.403E+00  0.410E+00  0.379E+00  0.318E+00  0.247E+00
  0.180E+00  0.126E+00  0.858E-01  0.560E-01  0.352E-01  0.215E-01  0.128E-01
  0.757E-02  0.450E-02  0.267E-02  0.163E-02  0.100E-02  0.622E-03  0.237E-02
  0.365E-01  0.190E+00  0.432E+00  0.476E+00  0.326E+00  0.252E+00  0.427E+00
  0.705E+00  0.109E+01  0.158E+01  0.196E+01  0.231E+01  0.230E+01  0.192E+01
  0.151E+01  0.111E+01  0.795E+00  0.557E+00  0.376E+00  0.247E+00  0.158E+00
  0.987E-01  0.613E-01  0.380E-01  0.237E-01  0.149E-01  0.950E-02  0.606E-02
  0.391E-02  0.254E-02  0.158E-02  0.119E-01  0.237E+00  0.157E+01  0.486E+01
  0.643E+01  0.900E+01  0.940E+01  0.644E+01  0.632E+01  0.714E+01  0.772E+01
  0.716E+01  0.659E+01  0.531E+01  0.382E+01  0.271E+01  0.192E+01  0.131E+01
  0.864E+00  0.554E+00  0.350E+00  0.220E+00  0.139E+00  0.887E-01  0.568E-01
  0.367E-01  0.239E-01  0.157E-01  0.102E-01  0.670E-02  0.438E-02  0.272E-02
  0.201E-01  0.480E+00  0.511E+01  0.211E+02  0.420E+02  0.741E+02  0.819E+02
  0.521E+02  0.283E+02  0.196E+02  0.180E+02  0.143E+02  0.108E+02  0.801E+01
  0.550E+01  0.364E+01  0.241E+01  0.155E+01  0.987E+00  0.630E+00  0.402E+00
  0.258E+00  0.167E+00  0.109E+00  0.717E-01  0.472E-01  0.313E-01  0.207E-01
  0.136E-01  0.888E-02  0.578E-02  0.359E-02  0.316E-01  0.538E+00  0.520E+01
  0.294E+02  0.939E+02  0.168E+03  0.188E+03  0.134E+03  0.720E+02  0.371E+02
  0.262E+02  0.197E+02  0.139E+02  0.902E+01  0.576E+01  0.363E+01  0.235E+01
  0.154E+01  0.100E+01  0.653E+00  0.429E+00  0.283E+00  0.187E+00  0.125E+00
  0.830E-01  0.552E-01  0.366E-01  0.242E-01  0.158E-01  0.103E-01  0.664E-02
  0.412E-02  0.280E-01  0.449E+00  0.407E+01  0.208E+02  0.774E+02  0.206E+03
  0.268E+03  0.158E+03  0.946E+02  0.548E+02  0.314E+02  0.210E+02  0.140E+02
  0.860E+01  0.547E+01  0.351E+01  0.227E+01  0.151E+01  0.101E+01  0.669E+00
  0.448E+00  0.300E+00  0.201E+00  0.135E+00  0.901E-01  0.598E-01  0.395E-01
  0.260E-01  0.169E-01  0.109E-01  0.706E-02  0.439E-02
20080310 150000
'W006N476  '  47.60  -6.00     148.2  20.85 282.5   0.00 270.0
  0.185E+00  0.300E+01  0.224E+02  0.660E+02  0.154E+03  0.233E+03  0.197E+03
  0.101E+03  0.567E+02  0.395E+02  0.282E+02  0.195E+02  0.126E+02  0.785E+01
  0.508E+01  0.338E+01  0.225E+01  0.151E+01  0.101E+01  0.666E+00  0.443E+00
  0.294E+00  0.195E+00  0.129E+00  0.853E-01  0.561E-01  0.369E-01  0.242E-01
  0.157E-01  0.102E-01  0.657E-02  0.408E-02  0.183E+00  0.284E+01  0.214E+02
  0.561E+02  0.891E+02  0.842E+02  0.694E+02  0.663E+02  0.372E+02  0.290E+02
  0.227E+02  0.168E+02  0.116E+02  0.783E+01  0.515E+01  0.346E+01  0.231E+01
  0.153E+01  0.100E+01  0.657E+00  0.428E+00  0.280E+00  0.183E+00  0.120E+00
  0.786E-01  0.515E-01  0.338E-01  0.222E-01  0.144E-01  0.937E-02  0.607E-02
  0.377E-02  0.155E+00  0.205E+01  0.136E+02  0.276E+02  0.275E+02  0.154E+02
  0.123E+02  0.205E+02  0.256E+02  0.185E+02  0.160E+02  0.130E+02  0.955E+01
  0.658E+01  0.454E+01  0.309E+01  0.209E+01  0.139E+01  0.904E+00  0.587E+00
  0.379E+00  0.245E+00  0.159E+00  0.103E+00  0.673E-01  0.440E-01  0.288E-01
  0.189E-01  0.123E-01  0.801E-02  0.520E-02  0.323E-02  0.872E-01  0.852E+00
  0.418E+01  0.606E+01  0.358E+01  0.172E+01  0.230E+01  0.439E+01  0.110E+02
  0.158E+02  0.116E+02  0.901E+01  0.658E+01  0.457E+01  0.319E+01  0.221E+01
  0.152E+01  0.102E+01  0.676E+00  0.443E+00  0.288E+00  0.187E+00  0.121E+00
  0.784E-01  0.508E-01  0.330E-01  0.215E-01  0.140E-01  0.911E-02  0.592E-02
  0.384E-02  0.238E-02  0.250E-01  0.157E+00  0.357E+00  0.232E+00  0.132E+00
  0.360E+00  0.773E+00  0.187E+01  0.365E+01  0.775E+01  0.102E+02  0.614E+01
  0.458E+01  0.307E+01  0.207E+01  0.143E+01  0.977E+00  0.657E+00  0.437E+00
  0.286E+00  0.186E+00  0.120E+00  0.769E-01  0.491E-01  0.312E-01  0.199E-01
  0.127E-01  0.810E-02  0.516E-02  0.331E-02  0.212E-02  0.132E-02  0.150E-02
  0.259E-02  0.295E-02  0.337E-02  0.278E-01  0.100E+00  0.395E+00  0.143E+01
  0.192E+01  0.254E+01  0.462E+01  0.371E+01  0.218E+01  0.165E+01  0.113E+01
  0.763E+00  0.508E+00  0.338E+00  0.224E+00  0.147E+00  0.948E-01  0.607E-01
  0.382E-01  0.238E-01  0.147E-01  0.898E-02  0.549E-02  0.336E-02  0.204E-02
  0.125E-02  0.773E-03  0.480E-03  0.116E-04  0.313E-04  0.203E-03  0.256E-02
  0.176E-01  0.386E-01  0.128E+00  0.662E+00  0.968E+00  0.918E+00  0.129E+01
  0.140E+01  0.758E+00  0.463E+00  0.360E+00  0.244E+00  0.158E+00  0.997E-01
  0.619E-01  0.387E-01  0.245E-01  0.154E-01  0.945E-02  0.572E-02  0.339E-02
  0.196E-02  0.113E-02  0.637E-03  0.356E-03  0.200E-03  0.112E-03  0.697E-04
  0.988E-05  0.646E-04  0.145E-03  0.946E-03  0.761E-02  0.190E-01  0.421E-01
  0.166E+00  0.339E+00  0.327E+00  0.325E+00  0.342E+00  0.223E+00  0.983E-01
  0.588E-01  0.338E-01  0.179E-01  0.101E-01  0.562E-02  0.306E-02  0.167E-02
  0.926E-03  0.526E-03  0.300E-03  0.168E-03  0.917E-04  0.489E-04  0.252E-04
  0.126E-04  0.617E-05  0.299E-05  0.186E-05  0.132E-04  0.994E-04  0.263E-03
  0.630E-03  0.592E-02  0.213E-01  0.471E-01  0.844E-01  0.105E+00  0.105E+00
  0.788E-01  0.657E-01  0.446E-01  0.195E-01  0.734E-02  0.263E-02  0.855E-03
  0.302E-03  0.124E-03  0.547E-04  0.250E-04  0.116E-04  0.541E-05  0.260E-05
  0.129E-05  0.646E-06  0.329E-06  0.168E-06  0.879E-07  0.463E-07  0.247E-07
  0.153E-07  0.143E-04  0.121E-03  0.405E-03  0.485E-03  0.287E-02  0.137E-01
  0.330E-01  0.562E-01  0.501E-01  0.400E-01  0.263E-01  0.155E-01  0.745E-02
  0.273E-02  0.765E-03  0.148E-03  0.231E-04  0.506E-05  0.178E-05  0.755E-06
  0.332E-06  0.145E-06  0.621E-07  0.265E-07  0.114E-07  0.484E-08  0.213E-08
  0.949E-09  0.520E-09  0.288E-09  0.160E-09  0.993E-10  0.206E-04  0.205E-03
  0.818E-03  0.105E-02  0.187E-02  0.446E-02  0.111E-01  0.148E-01  0.126E-01
  0.987E-02  0.680E-02  0.373E-02  0.140E-02  0.375E-03  0.759E-04  0.978E-05
  0.619E-06  0.506E-07  0.756E-08  0.139E-08  0.333E-09  0.969E-10  0.311E-10
  0.102E-10  0.327E-11  0.101E-11  0.335E-12  0.108E-12  0.598E-13  0.332E-13
  0.184E-13  0.114E-13  0.753E-04  0.880E-03  0.548E-02  0.175E-01  0.258E-01
  0.245E-01  0.200E-01  0.151E-01  0.118E-01  0.942E-02  0.682E-02  0.345E-02
  0.112E-02  0.238E-03  0.400E-04  0.462E-05  0.428E-06  0.466E-07  0.462E-08
  0.494E-09  0.410E-10  0.182E-11  0.511E-13  0.397E-14  0.449E-15  0.499E-16
  0.549E-17  0.845E-15  0.243E-15  0.483E-16  0.893E-17  0.554E-17  0.211E-03
  0.274E-02  0.198E-01  0.796E-01  0.170E+00  0.224E+00  0.189E+00  0.124E+00
  0.804E-01  0.524E-01  0.321E-01  0.121E-01  0.365E-02  0.990E-03  0.217E-03
  0.288E-04  0.161E-05  0.158E-07  0.235E-09  0.852E-11  0.461E-12  0.659E-13
  0.251E-13  0.957E-14  0.371E-14  0.105E-14  0.504E-15  0.674E-15  0.164E-15
  0.486E-16  0.197E-16  0.122E-16  0.253E-03  0.344E-02  0.270E-01  0.124E+00
  0.311E+00  0.507E+00  0.528E+00  0.400E+00  0.280E+00  0.189E+00  0.117E+00
  0.465E-01  0.147E-01  0.405E-02  0.887E-03  0.108E-03  0.339E-05  0.169E-07
  0.607E-08  0.897E-08  0.856E-08  0.558E-08  0.272E-08  0.106E-08  0.353E-09
  0.106E-09  0.324E-10  0.101E-10  0.574E-11  0.325E-11  0.184E-11  0.114E-11
  0.141E-03  0.202E-02  0.167E-01  0.796E-01  0.222E+00  0.400E+00  0.446E+00
  0.364E+00  0.268E+00  0.180E+00  0.108E+00  0.434E-01  0.141E-01  0.400E-02
  0.875E-03  0.104E-03  0.160E-04  0.115E-04  0.850E-05  0.533E-05  0.290E-05
  0.140E-05  0.621E-06  0.266E-06  0.115E-06  0.504E-07  0.232E-07  0.114E-07
  0.637E-08  0.358E-08  0.201E-08  0.125E-08  0.402E-04  0.567E-03  0.478E-02
  0.230E-01  0.634E-01  0.116E+00  0.131E+00  0.109E+00  0.770E-01  0.521E-01
  0.314E-01  0.131E-01  0.460E-02  0.174E-02  0.906E-03  0.617E-03  0.433E-03
  0.288E-03  0.178E-03  0.104E-03  0.592E-04  0.341E-04  0.202E-04  0.132E-04
  0.961E-05  0.712E-05  0.488E-05  0.287E-05  0.142E-05  0.622E-06  0.258E-06
  0.160E-06  0.620E-05  0.822E-04  0.675E-03  0.312E-02  0.858E-02  0.151E-01
  0.168E-01  0.178E-01  0.244E-01  0.337E-01  0.307E-01  0.179E-01  0.118E-01
  0.102E-01  0.934E-02  0.772E-02  0.575E-02  0.443E-02  0.353E-02  0.302E-02
  0.295E-02  0.284E-02  0.247E-02  0.190E-02  0.129E-02  0.781E-03  0.426E-03
  0.213E-03  0.997E-04  0.461E-04  0.215E-04  0.134E-04  0.300E-04  0.346E-03
  0.252E-02  0.108E-01  0.265E-01  0.476E-01  0.779E-01  0.936E-01  0.115E+00
  0.145E+00  0.147E+00  0.119E+00  0.108E+00  0.112E+00  0.114E+00  0.107E+00
  0.994E-01  0.100E+00  0.933E-01  0.767E-01  0.581E-01  0.410E-01  0.272E-01
  0.170E-01  0.101E-01  0.571E-02  0.317E-02  0.175E-02  0.964E-03  0.550E-03
  0.322E-03  0.200E-03  0.182E-03  0.138E-02  0.692E-02  0.369E-01  0.714E-01
  0.117E+00  0.202E+00  0.295E+00  0.425E+00  0.607E+00  0.785E+00  0.835E+00
  0.922E+00  0.977E+00  0.984E+00  0.875E+00  0.690E+00  0.516E+00  0.367E+00
  0.251E+00  0.167E+00  0.107E+00  0.665E-01  0.404E-01  0.244E-01  0.146E-01
  0.891E-02  0.551E-02  0.343E-02  0.218E-02  0.140E-02  0.872E-03  0.195E-01
  0.187E+00  0.650E+00  0.929E+00  0.877E+00  0.668E+00  0.101E+01  0.171E+01
  0.272E+01  0.364E+01  0.449E+01  0.492E+01  0.462E+01  0.364E+01  0.276E+01
  0.202E+01  0.143E+01  0.984E+00  0.654E+00  0.422E+00  0.267E+00  0.167E+00
  0.105E+00  0.655E-01  0.414E-01  0.265E-01  0.171E-01  0.112E-01  0.729E-02
  0.478E-02  0.314E-02  0.195E-02  0.135E+00  0.185E+01  0.635E+01  0.746E+01
  0.913E+01  0.138E+02  0.154E+02  0.137E+02  0.146E+02  0.145E+02  0.128E+02
  0.110E+02  0.892E+01  0.649E+01  0.455E+01  0.316E+01  0.212E+01  0.138E+01
  0.878E+00  0.552E+00  0.347E+00  0.220E+00  0.141E+00  0.911E-01  0.594E-01
  0.389E-01  0.257E-01  0.170E-01  0.112E-01  0.735E-02  0.480E-02  0.298E-02
  0.219E+00  0.379E+01  0.191E+02  0.362E+02  0.689E+02  0.107E+03  0.986E+02
  0.604E+02  0.356E+02  0.290E+02  0.236E+02  0.176E+02  0.125E+02  0.854E+01
  0.550E+01  0.358E+01  0.231E+01  0.147E+01  0.935E+00  0.602E+00  0.389E+00
  0.254E+00  0.167E+00  0.110E+00  0.731E-01  0.485E-01  0.322E-01  0.213E-01
  0.140E-01  0.910E-02  0.590E-02  0.366E-02  0.219E+00  0.360E+01  0.233E+02
  0.840E+02  0.217E+03  0.285E+03  0.211E+03  0.126E+03  0.674E+02  0.427E+02
  0.312E+02  0.215E+02  0.136E+02  0.849E+01  0.528E+01  0.337E+01  0.222E+01
  0.146E+01  0.953E+00  0.628E+00  0.417E+00  0.278E+00  0.186E+00  0.124E+00
  0.826E-01  0.548E-01  0.363E-01  0.239E-01  0.156E-01  0.101E-01  0.651E-02
  0.404E-02  0.189E+00  0.299E+01  0.207E+02  0.707E+02  0.198E+03  0.337E+03
  0.240E+03  0.144E+03  0.838E+02  0.509E+02  0.309E+02  0.206E+02  0.126E+02
  0.794E+01  0.509E+01  0.330E+01  0.217E+01  0.146E+01  0.972E+00  0.651E+00
  0.437E+00  0.293E+00  0.196E+00  0.131E+00  0.869E-01  0.575E-01  0.378E-01
  0.248E-01  0.161E-01  0.104E-01  0.673E-02  0.418E-02
20080310 180000
'W006N476  '  47.60  -6.00     148.2  19.40 288.7   0.00 270.0
  0.180E+00  0.388E+01  0.243E+02  0.794E+02  0.215E+03  0.213E+03  0.159E+03
  0.727E+02  0.441E+02  0.324E+02  0.246E+02  0.168E+02  0.110E+02  0.702E+01
  0.469E+01  0.319E+01  0.216E+01  0.145E+01  0.960E+00  0.634E+00  0.419E+00
  0.277E+00  0.183E+00  0.120E+00  0.786E-01  0.515E-01  0.337E-01  0.221E-01
  0.143E-01  0.929E-02  0.601E-02  0.373E-02  0.225E+00  0.434E+01  0.240E+02
  0.635E+02  0.107E+03  0.735E+02  0.605E+02  0.460E+02  0.286E+02  0.231E+02
  0.181E+02  0.137E+02  0.971E+01  0.659E+01  0.448E+01  0.305E+01  0.206E+01
  0.138E+01  0.912E+00  0.597E+00  0.391E+00  0.256E+00  0.167E+00  0.109E+00
  0.713E-01  0.466E-01  0.304E-01  0.199E-01  0.129E-01  0.839E-02  0.543E-02
  0.337E-02  0.227E+00  0.357E+01  0.159E+02  0.269E+02  0.250E+02  0.109E+02
  0.104E+02  0.178E+02  0.226E+02  0.169E+02  0.139E+02  0.107E+02  0.761E+01
  0.517E+01  0.364E+01  0.251E+01  0.171E+01  0.114E+01  0.753E+00  0.493E+00
  0.322E+00  0.211E+00  0.137E+00  0.896E-01  0.585E-01  0.383E-01  0.250E-01
  0.164E-01  0.106E-01  0.690E-02  0.447E-02  0.277E-02  0.154E+00  0.163E+01
  0.499E+01  0.465E+01  0.178E+01  0.978E+00  0.165E+01  0.371E+01  0.939E+01
  0.136E+02  0.109E+02  0.835E+01  0.582E+01  0.390E+01  0.265E+01  0.180E+01
  0.121E+01  0.801E+00  0.522E+00  0.339E+00  0.221E+00  0.144E+00  0.937E-01
  0.611E-01  0.398E-01  0.260E-01  0.170E-01  0.111E-01  0.720E-02  0.467E-02
  0.302E-02  0.187E-02  0.499E-01  0.314E+00  0.435E+00  0.931E-01  0.108E+00
  0.304E+00  0.711E+00  0.182E+01  0.325E+01  0.655E+01  0.836E+01  0.506E+01
  0.382E+01  0.261E+01  0.175E+01  0.118E+01  0.786E+00  0.514E+00  0.333E+00
  0.214E+00  0.136E+00  0.861E-01  0.545E-01  0.346E-01  0.219E-01  0.139E-01
  0.890E-02  0.570E-02  0.363E-02  0.232E-02  0.148E-02  0.920E-03  0.389E-02
  0.721E-02  0.907E-02  0.118E-01  0.502E-01  0.138E+00  0.418E+00  0.130E+01
  0.162E+01  0.225E+01  0.399E+01  0.296E+01  0.172E+01  0.128E+01  0.872E+00
  0.583E+00  0.379E+00  0.243E+00  0.154E+00  0.970E-01  0.604E-01  0.370E-01
  0.224E-01  0.134E-01  0.801E-02  0.479E-02  0.289E-02  0.175E-02  0.106E-02
  0.650E-03  0.399E-03  0.248E-03  0.103E-03  0.340E-03  0.140E-02  0.695E-02
  0.302E-01  0.614E-01  0.143E+00  0.422E+00  0.477E+00  0.579E+00  0.104E+01
  0.117E+01  0.606E+00  0.361E+00  0.257E+00  0.162E+00  0.997E-01  0.595E-01
  0.346E-01  0.200E-01  0.116E-01  0.666E-02  0.376E-02  0.209E-02  0.113E-02
  0.609E-03  0.328E-03  0.177E-03  0.961E-04  0.530E-04  0.295E-04  0.183E-04
  0.909E-04  0.592E-03  0.909E-03  0.165E-02  0.105E-01  0.231E-01  0.434E-01
  0.105E+00  0.132E+00  0.136E+00  0.202E+00  0.265E+00  0.188E+00  0.825E-01
  0.444E-01  0.209E-01  0.931E-02  0.454E-02  0.224E-02  0.109E-02  0.522E-03
  0.249E-03  0.121E-03  0.587E-04  0.284E-04  0.135E-04  0.638E-05  0.301E-05
  0.141E-05  0.680E-06  0.334E-06  0.208E-06  0.106E-03  0.822E-03  0.188E-02
  0.973E-03  0.674E-02  0.235E-01  0.481E-01  0.759E-01  0.668E-01  0.490E-01
  0.444E-01  0.462E-01  0.369E-01  0.169E-01  0.566E-02  0.165E-02  0.407E-03
  0.110E-03  0.345E-04  0.123E-04  0.484E-05  0.201E-05  0.878E-06  0.406E-06
  0.198E-06  0.985E-07  0.506E-07  0.264E-07  0.144E-07  0.788E-08  0.437E-08
  0.271E-08  0.106E-03  0.941E-03  0.273E-02  0.166E-02  0.476E-02  0.164E-01
  0.383E-01  0.582E-01  0.471E-01  0.306E-01  0.189E-01  0.121E-01  0.661E-02
  0.263E-02  0.610E-03  0.835E-04  0.903E-05  0.123E-05  0.275E-06  0.844E-07
  0.291E-07  0.103E-07  0.369E-08  0.137E-08  0.533E-09  0.211E-09  0.889E-10
  0.384E-10  0.209E-10  0.115E-10  0.635E-11  0.394E-11  0.141E-03  0.147E-02
  0.525E-02  0.395E-02  0.454E-02  0.100E-01  0.225E-01  0.293E-01  0.245E-01
  0.174E-01  0.102E-01  0.476E-02  0.165E-02  0.425E-03  0.709E-04  0.577E-05
  0.336E-06  0.486E-07  0.870E-08  0.105E-08  0.126E-09  0.123E-10  0.947E-12
  0.847E-13  0.186E-13  0.457E-14  0.106E-14  0.109E-14  0.638E-15  0.212E-15
  0.852E-16  0.529E-16  0.456E-03  0.548E-02  0.292E-01  0.552E-01  0.581E-01
  0.395E-01  0.271E-01  0.267E-01  0.260E-01  0.204E-01  0.121E-01  0.498E-02
  0.139E-02  0.251E-03  0.351E-04  0.383E-05  0.449E-06  0.622E-07  0.801E-08
  0.931E-09  0.954E-10  0.536E-11  0.989E-13  0.756E-14  0.777E-15  0.882E-16
  0.814E-17  0.933E-15  0.333E-15  0.658E-16  0.121E-16  0.750E-17  0.114E-02
  0.157E-01  0.951E-01  0.240E+00  0.382E+00  0.330E+00  0.203E+00  0.123E+00
  0.775E-01  0.529E-01  0.283E-01  0.106E-01  0.340E-02  0.993E-03  0.219E-03
  0.273E-04  0.144E-05  0.157E-07  0.376E-09  0.214E-10  0.138E-10  0.855E-11
  0.417E-11  0.194E-11  0.675E-12  0.188E-12  0.511E-13  0.137E-13  0.777E-14
  0.444E-14  0.256E-14  0.159E-14  0.127E-02  0.186E-01  0.121E+00  0.363E+00
  0.692E+00  0.731E+00  0.546E+00  0.382E+00  0.257E+00  0.181E+00  0.100E+00
  0.394E-01  0.139E-01  0.437E-02  0.973E-03  0.107E-03  0.217E-05  0.305E-06
  0.316E-06  0.264E-06  0.169E-06  0.866E-07  0.374E-07  0.143E-07  0.518E-08
  0.181E-08  0.666E-09  0.256E-09  0.144E-09  0.810E-10  0.456E-10  0.283E-10
  0.643E-03  0.101E-01  0.700E-01  0.228E+00  0.487E+00  0.557E+00  0.449E+00
  0.334E+00  0.238E+00  0.169E+00  0.911E-01  0.371E-01  0.138E-01  0.456E-02
  0.108E-02  0.158E-03  0.725E-04  0.516E-04  0.335E-04  0.193E-04  0.101E-04
  0.490E-05  0.231E-05  0.110E-05  0.538E-06  0.270E-06  0.144E-06  0.804E-07
  0.450E-07  0.243E-07  0.130E-07  0.804E-08  0.171E-03  0.269E-02  0.184E-01
  0.632E-01  0.134E+00  0.155E+00  0.128E+00  0.987E-01  0.677E-01  0.487E-01
  0.268E-01  0.123E-01  0.592E-02  0.328E-02  0.225E-02  0.158E-02  0.112E-02
  0.756E-03  0.495E-03  0.333E-03  0.228E-03  0.168E-03  0.142E-03  0.125E-03
  0.101E-03  0.712E-04  0.430E-04  0.223E-04  0.101E-04  0.425E-05  0.173E-05
  0.107E-05  0.361E-04  0.490E-03  0.309E-02  0.100E-01  0.211E-01  0.234E-01
  0.226E-01  0.254E-01  0.338E-01  0.401E-01  0.335E-01  0.260E-01  0.237E-01
  0.237E-01  0.225E-01  0.193E-01  0.167E-01  0.149E-01  0.144E-01  0.150E-01
  0.140E-01  0.115E-01  0.853E-02  0.576E-02  0.355E-02  0.202E-02  0.108E-02
  0.556E-03  0.277E-03  0.141E-03  0.728E-04  0.452E-04  0.153E-03  0.218E-02
  0.148E-01  0.397E-01  0.863E-01  0.109E+00  0.117E+00  0.135E+00  0.168E+00
  0.210E+00  0.215E+00  0.215E+00  0.241E+00  0.264E+00  0.273E+00  0.274E+00
  0.275E+00  0.241E+00  0.188E+00  0.138E+00  0.961E-01  0.641E-01  0.408E-01
  0.249E-01  0.147E-01  0.849E-02  0.490E-02  0.284E-02  0.166E-02  0.100E-02
  0.616E-03  0.382E-03  0.218E-03  0.299E-02  0.359E-01  0.115E+00  0.189E+00
  0.258E+00  0.360E+00  0.549E+00  0.887E+00  0.134E+01  0.159E+01  0.179E+01
  0.197E+01  0.196E+01  0.167E+01  0.127E+01  0.934E+00  0.665E+00  0.457E+00
  0.306E+00  0.198E+00  0.125E+00  0.773E-01  0.475E-01  0.292E-01  0.180E-01
  0.113E-01  0.716E-02  0.456E-02  0.296E-02  0.193E-02  0.120E-02  0.906E-02
  0.202E+00  0.629E+00  0.904E+00  0.740E+00  0.105E+01  0.210E+01  0.419E+01
  0.622E+01  0.766E+01  0.825E+01  0.762E+01  0.595E+01  0.436E+01  0.319E+01
  0.229E+01  0.160E+01  0.108E+01  0.706E+00  0.450E+00  0.285E+00  0.180E+00
  0.114E+00  0.727E-01  0.467E-01  0.303E-01  0.198E-01  0.131E-01  0.856E-02
  0.562E-02  0.368E-02  0.229E-02  0.932E-01  0.209E+01  0.489E+01  0.487E+01
  0.605E+01  0.151E+02  0.220E+02  0.232E+02  0.215E+02  0.189E+02  0.156E+02
  0.127E+02  0.977E+01  0.687E+01  0.477E+01  0.321E+01  0.209E+01  0.134E+01
  0.857E+00  0.542E+00  0.346E+00  0.223E+00  0.144E+00  0.943E-01  0.620E-01
  0.409E-01  0.271E-01  0.180E-01  0.118E-01  0.774E-02  0.504E-02  0.313E-02
  0.219E+00  0.390E+01  0.125E+02  0.226E+02  0.633E+02  0.119E+03  0.108E+03
  0.571E+02  0.390E+02  0.318E+02  0.252E+02  0.185E+02  0.126E+02  0.808E+01
  0.517E+01  0.336E+01  0.216E+01  0.139E+01  0.899E+00  0.583E+00  0.381E+00
  0.251E+00  0.166E+00  0.110E+00  0.731E-01  0.486E-01  0.322E-01  0.213E-01
  0.139E-01  0.904E-02  0.585E-02  0.363E-02  0.200E+00  0.343E+01  0.153E+02
  0.618E+02  0.258E+03  0.275E+03  0.187E+03  0.105E+03  0.656E+02  0.433E+02
  0.315E+02  0.204E+02  0.127E+02  0.787E+01  0.498E+01  0.322E+01  0.213E+01
  0.140E+01  0.918E+00  0.607E+00  0.404E+00  0.270E+00  0.180E+00  0.120E+00
  0.798E-01  0.529E-01  0.349E-01  0.230E-01  0.149E-01  0.968E-02  0.625E-02
  0.388E-02  0.163E+00  0.313E+01  0.172E+02  0.770E+02  0.273E+03  0.307E+03
  0.207E+03  0.122E+03  0.711E+02  0.432E+02  0.287E+02  0.186E+02  0.117E+02
  0.751E+01  0.485E+01  0.317E+01  0.212E+01  0.142E+01  0.944E+00  0.631E+00
  0.421E+00  0.280E+00  0.186E+00  0.124E+00  0.817E-01  0.538E-01  0.353E-01
  0.232E-01  0.150E-01  0.974E-02  0.630E-02  0.391E-02
20080310 210000
'W006N476  '  47.60  -6.00     148.2  17.56 283.6   0.00 270.0
  0.487E-01  0.165E+01  0.147E+02  0.521E+02  0.176E+03  0.177E+03  0.133E+03
  0.591E+02  0.355E+02  0.266E+02  0.211E+02  0.147E+02  0.997E+01  0.650E+01
  0.441E+01  0.303E+01  0.207E+01  0.138E+01  0.914E+00  0.601E+00  0.396E+00
  0.260E+00  0.170E+00  0.111E+00  0.728E-01  0.476E-01  0.312E-01  0.204E-01
  0.133E-01  0.863E-02  0.561E-02  0.348E-02  0.840E-01  0.226E+01  0.148E+02
  0.416E+02  0.827E+02  0.551E+02  0.475E+02  0.387E+02  0.245E+02  0.194E+02
  0.157E+02  0.122E+02  0.886E+01  0.608E+01  0.417E+01  0.285E+01  0.194E+01
  0.130E+01  0.869E+00  0.571E+00  0.374E+00  0.245E+00  0.160E+00  0.104E+00
  0.680E-01  0.444E-01  0.290E-01  0.189E-01  0.123E-01  0.799E-02  0.518E-02
  0.321E-02  0.998E-01  0.203E+01  0.999E+01  0.171E+02  0.172E+02  0.649E+01
  0.741E+01  0.145E+02  0.206E+02  0.157E+02  0.131E+02  0.991E+01  0.704E+01
  0.480E+01  0.340E+01  0.236E+01  0.163E+01  0.109E+01  0.727E+00  0.480E+00
  0.317E+00  0.209E+00  0.137E+00  0.897E-01  0.587E-01  0.384E-01  0.251E-01
  0.164E-01  0.106E-01  0.687E-02  0.444E-02  0.276E-02  0.801E-01  0.103E+01
  0.312E+01  0.277E+01  0.852E+00  0.620E+00  0.117E+01  0.292E+01  0.772E+01
  0.119E+02  0.101E+02  0.795E+01  0.560E+01  0.372E+01  0.248E+01  0.167E+01
  0.114E+01  0.761E+00  0.505E+00  0.335E+00  0.223E+00  0.148E+00  0.982E-01
  0.649E-01  0.428E-01  0.281E-01  0.184E-01  0.121E-01  0.782E-02  0.506E-02
  0.326E-02  0.202E-02  0.318E-01  0.227E+00  0.282E+00  0.691E-01  0.147E+00
  0.333E+00  0.639E+00  0.151E+01  0.275E+01  0.535E+01  0.722E+01  0.442E+01
  0.341E+01  0.243E+01  0.167E+01  0.114E+01  0.756E+00  0.494E+00  0.322E+00
  0.209E+00  0.135E+00  0.878E-01  0.571E-01  0.372E-01  0.242E-01  0.158E-01
  0.102E-01  0.664E-02  0.426E-02  0.274E-02  0.175E-02  0.108E-02  0.351E-02
  0.950E-02  0.182E-01  0.455E-01  0.139E+00  0.252E+00  0.411E+00  0.787E+00
  0.940E+00  0.142E+01  0.271E+01  0.235E+01  0.147E+01  0.111E+01  0.779E+00
  0.542E+00  0.367E+00  0.241E+00  0.154E+00  0.974E-01  0.612E-01  0.382E-01
  0.238E-01  0.148E-01  0.921E-02  0.579E-02  0.366E-02  0.232E-02  0.146E-02
  0.919E-03  0.575E-03  0.357E-03  0.178E-03  0.148E-02  0.636E-02  0.246E-01
  0.833E-01  0.129E+00  0.174E+00  0.253E+00  0.222E+00  0.256E+00  0.448E+00
  0.608E+00  0.440E+00  0.286E+00  0.211E+00  0.138E+00  0.872E-01  0.542E-01
  0.334E-01  0.201E-01  0.119E-01  0.695E-02  0.403E-02  0.232E-02  0.134E-02
  0.774E-03  0.454E-03  0.270E-03  0.160E-03  0.966E-04  0.578E-04  0.359E-04
  0.130E-03  0.112E-02  0.281E-02  0.494E-02  0.203E-01  0.413E-01  0.639E-01
  0.821E-01  0.638E-01  0.524E-01  0.675E-01  0.940E-01  0.954E-01  0.552E-01
  0.314E-01  0.150E-01  0.677E-02  0.339E-02  0.176E-02  0.912E-03  0.476E-03
  0.249E-03  0.128E-03  0.663E-04  0.344E-04  0.178E-04  0.936E-05  0.497E-05
  0.261E-05  0.140E-05  0.761E-06  0.472E-06  0.143E-03  0.145E-02  0.331E-02
  0.298E-02  0.107E-01  0.297E-01  0.575E-01  0.733E-01  0.516E-01  0.302E-01
  0.198E-01  0.171E-01  0.147E-01  0.863E-02  0.321E-02  0.921E-03  0.229E-03
  0.671E-04  0.238E-04  0.100E-04  0.475E-05  0.239E-05  0.126E-05  0.690E-06
  0.387E-06  0.215E-06  0.119E-06  0.660E-07  0.363E-07  0.201E-07  0.112E-07
  0.694E-08  0.137E-03  0.159E-02  0.434E-02  0.436E-02  0.982E-02  0.255E-01
  0.550E-01  0.685E-01  0.492E-01  0.284E-01  0.142E-01  0.707E-02  0.359E-02
  0.140E-02  0.332E-03  0.402E-04  0.374E-05  0.588E-06  0.172E-06  0.660E-07
  0.282E-07  0.125E-07  0.573E-08  0.273E-08  0.135E-08  0.675E-09  0.347E-09
  0.177E-09  0.985E-10  0.550E-10  0.308E-10  0.191E-10  0.163E-03  0.222E-02
  0.742E-02  0.811E-02  0.101E-01  0.200E-01  0.366E-01  0.442E-01  0.358E-01
  0.232E-01  0.124E-01  0.530E-02  0.166E-02  0.347E-03  0.500E-04  0.356E-05
  0.366E-06  0.916E-07  0.200E-07  0.265E-08  0.330E-09  0.336E-10  0.270E-11
  0.178E-12  0.502E-13  0.170E-13  0.575E-14  0.244E-14  0.237E-14  0.110E-14
  0.537E-15  0.334E-15  0.470E-03  0.723E-02  0.332E-01  0.694E-01  0.769E-01
  0.439E-01  0.307E-01  0.327E-01  0.318E-01  0.236E-01  0.140E-01  0.586E-02
  0.169E-02  0.294E-03  0.426E-04  0.656E-05  0.103E-05  0.160E-06  0.236E-07
  0.266E-08  0.280E-09  0.221E-10  0.605E-12  0.226E-13  0.196E-14  0.220E-15
  0.204E-16  0.228E-17  0.755E-15  0.182E-15  0.388E-16  0.241E-16  0.108E-02
  0.189E-01  0.100E+00  0.281E+00  0.476E+00  0.326E+00  0.181E+00  0.102E+00
  0.673E-01  0.488E-01  0.279E-01  0.114E-01  0.426E-02  0.145E-02  0.383E-03
  0.599E-04  0.478E-05  0.621E-07  0.138E-08  0.215E-09  0.890E-10  0.335E-10
  0.902E-11  0.217E-11  0.373E-12  0.617E-13  0.118E-13  0.282E-14  0.196E-14
  0.953E-15  0.513E-15  0.319E-15  0.110E-02  0.209E-01  0.119E+00  0.394E+00
  0.835E+00  0.700E+00  0.484E+00  0.310E+00  0.219E+00  0.162E+00  0.949E-01
  0.418E-01  0.176E-01  0.655E-02  0.175E-02  0.248E-03  0.859E-05  0.164E-05
  0.106E-05  0.603E-06  0.267E-06  0.960E-07  0.298E-07  0.857E-08  0.248E-08
  0.747E-09  0.249E-09  0.931E-10  0.518E-10  0.288E-10  0.161E-10  0.998E-11
  0.513E-03  0.105E-01  0.651E-01  0.241E+00  0.567E+00  0.523E+00  0.396E+00
  0.271E+00  0.203E+00  0.148E+00  0.851E-01  0.390E-01  0.172E-01  0.684E-02
  0.205E-02  0.387E-03  0.149E-03  0.851E-04  0.465E-04  0.225E-04  0.979E-05
  0.411E-05  0.174E-05  0.783E-06  0.407E-06  0.238E-06  0.140E-06  0.730E-07
  0.336E-07  0.151E-07  0.731E-08  0.454E-08  0.127E-03  0.255E-02  0.160E-01
  0.633E-01  0.147E+00  0.143E+00  0.114E+00  0.816E-01  0.598E-01  0.436E-01
  0.262E-01  0.142E-01  0.812E-02  0.545E-02  0.392E-02  0.266E-02  0.176E-02
  0.114E-02  0.766E-03  0.531E-03  0.422E-03  0.406E-03  0.370E-03  0.285E-03
  0.185E-03  0.999E-04  0.454E-04  0.178E-04  0.632E-05  0.221E-05  0.817E-06
  0.507E-06  0.553E-04  0.814E-03  0.469E-02  0.132E-01  0.270E-01  0.284E-01
  0.272E-01  0.311E-01  0.396E-01  0.429E-01  0.384E-01  0.339E-01  0.344E-01
  0.365E-01  0.355E-01  0.319E-01  0.288E-01  0.288E-01  0.310E-01  0.288E-01
  0.227E-01  0.161E-01  0.104E-01  0.607E-02  0.324E-02  0.160E-02  0.754E-03
  0.350E-03  0.164E-03  0.808E-04  0.417E-04  0.259E-04  0.186E-03  0.270E-02
  0.191E-01  0.506E-01  0.110E+00  0.122E+00  0.125E+00  0.142E+00  0.181E+00
  0.235E+00  0.258E+00  0.291E+00  0.346E+00  0.393E+00  0.422E+00  0.438E+00
  0.394E+00  0.304E+00  0.218E+00  0.150E+00  0.981E-01  0.611E-01  0.362E-01
  0.205E-01  0.114E-01  0.629E-02  0.353E-02  0.203E-02  0.119E-02  0.721E-03
  0.448E-03  0.278E-03  0.299E-03  0.294E-02  0.410E-01  0.126E+00  0.216E+00
  0.266E+00  0.348E+00  0.556E+00  0.993E+00  0.165E+01  0.204E+01  0.247E+01
  0.266E+01  0.241E+01  0.188E+01  0.135E+01  0.961E+00  0.658E+00  0.435E+00
  0.277E+00  0.171E+00  0.103E+00  0.618E-01  0.373E-01  0.228E-01  0.141E-01
  0.888E-02  0.569E-02  0.366E-02  0.238E-02  0.155E-02  0.964E-03  0.154E-02
  0.679E-01  0.395E+00  0.611E+00  0.546E+00  0.855E+00  0.195E+01  0.491E+01
  0.753E+01  0.931E+01  0.961E+01  0.818E+01  0.611E+01  0.431E+01  0.302E+01
  0.209E+01  0.141E+01  0.913E+00  0.572E+00  0.356E+00  0.223E+00  0.141E+00
  0.900E-01  0.581E-01  0.378E-01  0.248E-01  0.164E-01  0.109E-01  0.716E-02
  0.470E-02  0.307E-02  0.191E-02  0.227E-01  0.746E+00  0.304E+01  0.306E+01
  0.365E+01  0.107E+02  0.222E+02  0.270E+02  0.221E+02  0.186E+02  0.150E+02
  0.115E+02  0.855E+01  0.583E+01  0.392E+01  0.258E+01  0.167E+01  0.108E+01
  0.698E+00  0.450E+00  0.292E+00  0.191E+00  0.125E+00  0.829E-01  0.550E-01
  0.365E-01  0.242E-01  0.160E-01  0.105E-01  0.680E-02  0.440E-02  0.273E-02
  0.601E-01  0.146E+01  0.715E+01  0.113E+02  0.327E+02  0.110E+03  0.103E+03
  0.528E+02  0.350E+02  0.274E+02  0.215E+02  0.158E+02  0.106E+02  0.668E+01
  0.430E+01  0.281E+01  0.184E+01  0.121E+01  0.795E+00  0.521E+00  0.345E+00
  0.229E+00  0.152E+00  0.101E+00  0.673E-01  0.445E-01  0.293E-01  0.192E-01
  0.125E-01  0.807E-02  0.520E-02  0.323E-02  0.526E-01  0.125E+01  0.737E+01
  0.246E+02  0.175E+03  0.242E+03  0.163E+03  0.901E+02  0.569E+02  0.367E+02
  0.264E+02  0.173E+02  0.109E+02  0.687E+01  0.445E+01  0.293E+01  0.196E+01
  0.130E+01  0.859E+00  0.570E+00  0.380E+00  0.253E+00  0.168E+00  0.111E+00
  0.735E-01  0.484E-01  0.317E-01  0.208E-01  0.135E-01  0.871E-02  0.562E-02
  0.349E-02  0.412E-01  0.114E+01  0.929E+01  0.453E+02  0.216E+03  0.259E+03
  0.177E+03  0.106E+03  0.578E+02  0.355E+02  0.244E+02  0.163E+02  0.106E+02
  0.692E+01  0.452E+01  0.299E+01  0.202E+01  0.135E+01  0.901E+00  0.599E+00
  0.397E+00  0.262E+00  0.173E+00  0.114E+00  0.749E-01  0.491E-01  0.322E-01
  0.211E-01  0.137E-01  0.888E-02  0.576E-02  0.358E-02
20080311 000000
'W006N476  '  47.60  -6.00     148.2  15.50 278.4   0.00 270.0
  0.628E-02  0.368E+00  0.617E+01  0.247E+02  0.975E+02  0.134E+03  0.107E+03
  0.511E+02  0.278E+02  0.209E+02  0.169E+02  0.123E+02  0.867E+01  0.579E+01
  0.396E+01  0.274E+01  0.189E+01  0.127E+01  0.845E+00  0.556E+00  0.365E+00
  0.239E+00  0.156E+00  0.102E+00  0.664E-01  0.433E-01  0.283E-01  0.185E-01
  0.121E-01  0.783E-02  0.509E-02  0.316E-02  0.151E-01  0.595E+00  0.678E+01
  0.200E+02  0.451E+02  0.350E+02  0.308E+02  0.349E+02  0.217E+02  0.170E+02
  0.139E+02  0.112E+02  0.813E+01  0.562E+01  0.383E+01  0.261E+01  0.178E+01
  0.120E+01  0.799E+00  0.526E+00  0.345E+00  0.226E+00  0.148E+00  0.969E-01
  0.634E-01  0.414E-01  0.271E-01  0.177E-01  0.115E-01  0.745E-02  0.483E-02
  0.300E-02  0.219E-01  0.567E+00  0.471E+01  0.832E+01  0.918E+01  0.309E+01
  0.440E+01  0.110E+02  0.192E+02  0.151E+02  0.128E+02  0.994E+01  0.705E+01
  0.474E+01  0.329E+01  0.224E+01  0.153E+01  0.103E+01  0.684E+00  0.452E+00
  0.299E+00  0.198E+00  0.131E+00  0.862E-01  0.567E-01  0.372E-01  0.244E-01
  0.159E-01  0.103E-01  0.668E-02  0.431E-02  0.268E-02  0.196E-01  0.313E+00
  0.151E+01  0.133E+01  0.448E+00  0.442E+00  0.890E+00  0.233E+01  0.652E+01
  0.115E+02  0.998E+01  0.803E+01  0.576E+01  0.385E+01  0.254E+01  0.170E+01
  0.114E+01  0.766E+00  0.510E+00  0.339E+00  0.226E+00  0.151E+00  0.101E+00
  0.668E-01  0.443E-01  0.292E-01  0.192E-01  0.126E-01  0.817E-02  0.529E-02
  0.341E-02  0.211E-02  0.978E-02  0.844E-01  0.168E+00  0.142E+00  0.250E+00
  0.429E+00  0.648E+00  0.117E+01  0.229E+01  0.445E+01  0.654E+01  0.445E+01
  0.349E+01  0.256E+01  0.180E+01  0.124E+01  0.844E+00  0.558E+00  0.365E+00
  0.237E+00  0.154E+00  0.100E+00  0.652E-01  0.425E-01  0.277E-01  0.180E-01
  0.118E-01  0.767E-02  0.495E-02  0.320E-02  0.206E-02  0.128E-02  0.297E-02
  0.153E-01  0.646E-01  0.165E+00  0.281E+00  0.401E+00  0.481E+00  0.571E+00
  0.608E+00  0.823E+00  0.145E+01  0.169E+01  0.138E+01  0.115E+01  0.881E+00
  0.661E+00  0.478E+00  0.329E+00  0.219E+00  0.142E+00  0.900E-01  0.566E-01
  0.353E-01  0.220E-01  0.137E-01  0.862E-02  0.544E-02  0.345E-02  0.217E-02
  0.137E-02  0.865E-03  0.537E-03  0.669E-03  0.508E-02  0.249E-01  0.912E-01
  0.188E+00  0.241E+00  0.240E+00  0.215E+00  0.162E+00  0.148E+00  0.182E+00
  0.246E+00  0.280E+00  0.237E+00  0.206E+00  0.167E+00  0.127E+00  0.936E-01
  0.663E-01  0.446E-01  0.286E-01  0.177E-01  0.106E-01  0.623E-02  0.363E-02
  0.211E-02  0.124E-02  0.736E-03  0.437E-03  0.263E-03  0.158E-03  0.980E-04
  0.113E-03  0.148E-02  0.546E-02  0.149E-01  0.564E-01  0.943E-01  0.109E+00
  0.995E-01  0.604E-01  0.362E-01  0.307E-01  0.325E-01  0.366E-01  0.322E-01
  0.228E-01  0.138E-01  0.844E-02  0.575E-02  0.408E-02  0.286E-02  0.196E-02
  0.128E-02  0.775E-03  0.442E-03  0.241E-03  0.127E-03  0.663E-04  0.346E-04
  0.180E-04  0.958E-05  0.514E-05  0.319E-05  0.995E-04  0.124E-02  0.447E-02
  0.936E-02  0.229E-01  0.550E-01  0.924E-01  0.916E-01  0.544E-01  0.273E-01
  0.133E-01  0.737E-02  0.513E-02  0.356E-02  0.184E-02  0.706E-03  0.288E-03
  0.142E-03  0.754E-04  0.410E-04  0.226E-04  0.126E-04  0.711E-05  0.401E-05
  0.222E-05  0.118E-05  0.621E-06  0.324E-06  0.167E-06  0.879E-07  0.469E-07
  0.291E-07  0.908E-04  0.132E-02  0.518E-02  0.975E-02  0.199E-01  0.489E-01
  0.960E-01  0.104E+00  0.671E-01  0.356E-01  0.156E-01  0.573E-02  0.203E-02
  0.649E-03  0.173E-03  0.289E-04  0.694E-05  0.337E-05  0.170E-05  0.835E-06
  0.399E-06  0.188E-06  0.886E-07  0.427E-07  0.212E-07  0.106E-07  0.539E-08
  0.274E-08  0.151E-08  0.837E-09  0.466E-09  0.289E-09  0.896E-04  0.151E-02
  0.630E-02  0.117E-01  0.190E-01  0.346E-01  0.540E-01  0.589E-01  0.465E-01
  0.292E-01  0.150E-01  0.595E-02  0.171E-02  0.281E-03  0.300E-04  0.222E-05
  0.517E-06  0.231E-06  0.628E-07  0.132E-07  0.171E-08  0.285E-09  0.652E-10
  0.205E-10  0.749E-11  0.280E-11  0.113E-11  0.462E-12  0.258E-12  0.144E-12
  0.806E-13  0.500E-13  0.189E-03  0.387E-02  0.209E-01  0.478E-01  0.701E-01
  0.430E-01  0.335E-01  0.342E-01  0.293E-01  0.217E-01  0.132E-01  0.586E-02
  0.180E-02  0.347E-03  0.658E-04  0.155E-04  0.324E-05  0.619E-06  0.104E-06
  0.143E-07  0.137E-08  0.123E-09  0.830E-11  0.114E-12  0.764E-14  0.721E-15
  0.726E-16  0.779E-17  0.120E-14  0.354E-15  0.750E-16  0.466E-16  0.382E-03
  0.920E-02  0.600E-01  0.185E+00  0.403E+00  0.278E+00  0.156E+00  0.829E-01
  0.563E-01  0.434E-01  0.279E-01  0.131E-01  0.585E-02  0.244E-02  0.836E-03
  0.189E-03  0.255E-04  0.162E-05  0.189E-07  0.691E-09  0.943E-10  0.172E-10
  0.236E-11  0.167E-12  0.140E-13  0.179E-14  0.243E-15  0.459E-16  0.900E-15
  0.192E-15  0.431E-16  0.268E-16  0.348E-03  0.930E-02  0.686E-01  0.244E+00
  0.687E+00  0.595E+00  0.419E+00  0.253E+00  0.186E+00  0.146E+00  0.975E-01
  0.494E-01  0.243E-01  0.108E-01  0.384E-02  0.832E-03  0.870E-04  0.255E-05
  0.908E-06  0.344E-06  0.105E-06  0.257E-07  0.545E-08  0.110E-08  0.231E-09
  0.516E-10  0.150E-10  0.586E-11  0.360E-11  0.206E-11  0.115E-11  0.715E-12
  0.146E-03  0.436E-02  0.361E-01  0.145E+00  0.456E+00  0.443E+00  0.343E+00
  0.224E+00  0.173E+00  0.135E+00  0.889E-01  0.467E-01  0.238E-01  0.112E-01
  0.432E-02  0.107E-02  0.188E-03  0.770E-04  0.329E-04  0.128E-04  0.452E-05
  0.153E-05  0.535E-06  0.264E-06  0.187E-06  0.121E-06  0.579E-07  0.223E-07
  0.826E-08  0.365E-08  0.188E-08  0.117E-08  0.352E-04  0.970E-03  0.849E-02
  0.358E-01  0.113E+00  0.120E+00  0.990E-01  0.688E-01  0.520E-01  0.404E-01
  0.280E-01  0.169E-01  0.104E-01  0.689E-02  0.466E-02  0.295E-02  0.172E-02
  0.102E-02  0.654E-03  0.456E-03  0.441E-03  0.473E-03  0.395E-03  0.252E-03
  0.127E-03  0.515E-04  0.172E-04  0.501E-05  0.141E-05  0.446E-06  0.172E-06
  0.107E-06  0.386E-04  0.600E-03  0.373E-02  0.105E-01  0.237E-01  0.260E-01
  0.257E-01  0.288E-01  0.365E-01  0.412E-01  0.392E-01  0.343E-01  0.335E-01
  0.352E-01  0.345E-01  0.312E-01  0.285E-01  0.310E-01  0.346E-01  0.305E-01
  0.221E-01  0.141E-01  0.802E-02  0.406E-02  0.185E-02  0.773E-03  0.313E-03
  0.130E-03  0.563E-04  0.267E-04  0.136E-04  0.848E-05  0.102E-03  0.150E-02
  0.117E-01  0.372E-01  0.909E-01  0.112E+00  0.117E+00  0.125E+00  0.155E+00
  0.199E+00  0.226E+00  0.255E+00  0.307E+00  0.356E+00  0.396E+00  0.425E+00
  0.380E+00  0.288E+00  0.201E+00  0.132E+00  0.816E-01  0.474E-01  0.260E-01
  0.136E-01  0.704E-02  0.368E-02  0.200E-02  0.113E-02  0.657E-03  0.402E-03
  0.252E-03  0.157E-03  0.128E-03  0.166E-02  0.185E-01  0.839E-01  0.165E+00
  0.208E+00  0.260E+00  0.371E+00  0.663E+00  0.118E+01  0.163E+01  0.210E+01
  0.238E+01  0.220E+01  0.171E+01  0.123E+01  0.859E+00  0.577E+00  0.370E+00
  0.227E+00  0.134E+00  0.779E-01  0.454E-01  0.268E-01  0.162E-01  0.996E-02
  0.628E-02  0.404E-02  0.261E-02  0.171E-02  0.112E-02  0.695E-03  0.273E-03
  0.104E-01  0.210E+00  0.360E+00  0.334E+00  0.469E+00  0.103E+01  0.304E+01
  0.557E+01  0.735E+01  0.818E+01  0.730E+01  0.554E+01  0.391E+01  0.267E+01
  0.180E+01  0.118E+01  0.735E+00  0.447E+00  0.273E+00  0.169E+00  0.106E+00
  0.681E-01  0.441E-01  0.289E-01  0.191E-01  0.127E-01  0.849E-02  0.561E-02
  0.369E-02  0.240E-02  0.149E-02  0.325E-02  0.142E+00  0.172E+01  0.179E+01
  0.216E+01  0.450E+01  0.152E+02  0.233E+02  0.183E+02  0.156E+02  0.128E+02
  0.990E+01  0.730E+01  0.487E+01  0.311E+01  0.196E+01  0.124E+01  0.802E+00
  0.524E+00  0.344E+00  0.228E+00  0.152E+00  0.102E+00  0.686E-01  0.461E-01
  0.308E-01  0.205E-01  0.136E-01  0.886E-02  0.574E-02  0.370E-02  0.229E-02
  0.823E-02  0.336E+00  0.335E+01  0.625E+01  0.119E+02  0.761E+02  0.933E+02
  0.496E+02  0.290E+02  0.219E+02  0.168E+02  0.123E+02  0.802E+01  0.506E+01
  0.327E+01  0.218E+01  0.146E+01  0.984E+00  0.659E+00  0.441E+00  0.296E+00
  0.200E+00  0.134E+00  0.897E-01  0.596E-01  0.393E-01  0.258E-01  0.169E-01
  0.109E-01  0.700E-02  0.449E-02  0.279E-02  0.668E-02  0.284E+00  0.315E+01
  0.960E+01  0.698E+02  0.214E+03  0.145E+03  0.809E+02  0.471E+02  0.279E+02
  0.192E+02  0.130E+02  0.848E+01  0.549E+01  0.364E+01  0.245E+01  0.167E+01
  0.114E+01  0.769E+00  0.517E+00  0.346E+00  0.231E+00  0.153E+00  0.101E+00
  0.663E-01  0.433E-01  0.282E-01  0.183E-01  0.118E-01  0.762E-02  0.490E-02
  0.305E-02  0.525E-02  0.245E+00  0.346E+01  0.206E+02  0.117E+03  0.223E+03
  0.149E+03  0.896E+02  0.451E+02  0.270E+02  0.184E+02  0.129E+02  0.872E+01
  0.585E+01  0.391E+01  0.266E+01  0.183E+01  0.124E+01  0.835E+00  0.556E+00
  0.367E+00  0.242E+00  0.158E+00  0.104E+00  0.676E-01  0.441E-01  0.287E-01
  0.187E-01  0.122E-01  0.788E-02  0.511E-02  0.317E-02
20080311 030000
'W006N476  '  47.60  -6.00     148.2  15.53 269.6   0.00 270.0
  0.680E-03  0.656E-01  0.208E+01  0.106E+02  0.454E+02  0.949E+02  0.827E+02
  0.466E+02  0.226E+02  0.171E+02  0.141E+02  0.109E+02  0.801E+01  0.555E+01
  0.382E+01  0.267E+01  0.185E+01  0.126E+01  0.843E+00  0.556E+00  0.365E+00
  0.240E+00  0.157E+00  0.102E+00  0.666E-01  0.434E-01  0.284E-01  0.186E-01
  0.121E-01  0.787E-02  0.512E-02  0.318E-02  0.212E-02  0.124E+00  0.264E+01
  0.910E+01  0.215E+02  0.211E+02  0.171E+02  0.304E+02  0.192E+02  0.150E+02
  0.129E+02  0.110E+02  0.825E+01  0.580E+01  0.392E+01  0.268E+01  0.182E+01
  0.123E+01  0.819E+00  0.537E+00  0.351E+00  0.230E+00  0.151E+00  0.988E-01
  0.648E-01  0.425E-01  0.278E-01  0.183E-01  0.119E-01  0.774E-02  0.502E-02
  0.312E-02  0.361E-02  0.123E+00  0.195E+01  0.402E+01  0.457E+01  0.134E+01
  0.229E+01  0.716E+01  0.169E+02  0.144E+02  0.121E+02  0.102E+02  0.767E+01
  0.528E+01  0.362E+01  0.244E+01  0.165E+01  0.110E+01  0.733E+00  0.484E+00
  0.320E+00  0.212E+00  0.140E+00  0.925E-01  0.610E-01  0.401E-01  0.263E-01
  0.173E-01  0.112E-01  0.725E-02  0.468E-02  0.291E-02  0.321E-02  0.728E-01
  0.668E+00  0.630E+00  0.269E+00  0.335E+00  0.676E+00  0.179E+01  0.541E+01
  0.113E+02  0.102E+02  0.831E+01  0.607E+01  0.407E+01  0.271E+01  0.186E+01
  0.129E+01  0.882E+00  0.595E+00  0.397E+00  0.265E+00  0.177E+00  0.118E+00
  0.787E-01  0.522E-01  0.345E-01  0.227E-01  0.149E-01  0.968E-02  0.626E-02
  0.403E-02  0.250E-02  0.294E-02  0.315E-01  0.138E+00  0.244E+00  0.357E+00
[...]
  0.232E-01  0.242E-01  0.264E-01  0.273E-01  0.275E-01  0.313E-01  0.369E-01
  0.351E-01  0.270E-01  0.184E-01  0.115E-01  0.648E-02  0.327E-02  0.145E-02
  0.575E-03  0.211E-03  0.773E-04  0.297E-04  0.185E-04  0.161E-07  0.819E-06
  0.137E-04  0.183E-03  0.231E-02  0.871E-02  0.296E-01  0.480E-01  0.607E-01
  0.809E-01  0.108E+00  0.125E+00  0.143E+00  0.174E+00  0.202E+00  0.222E+00
  0.234E+00  0.217E+00  0.173E+00  0.126E+00  0.873E-01  0.575E-01  0.359E-01
  0.210E-01  0.114E-01  0.586E-02  0.295E-02  0.150E-02  0.770E-03  0.418E-03
  0.237E-03  0.147E-03  0.120E-05  0.887E-04  0.155E-02  0.139E-01  0.253E-01
  0.300E-01  0.535E-01  0.854E-01  0.129E+00  0.213E+00  0.362E+00  0.592E+00
  0.832E+00  0.103E+01  0.101E+01  0.799E+00  0.583E+00  0.415E+00  0.288E+00
  0.193E+00  0.124E+00  0.757E-01  0.445E-01  0.257E-01  0.150E-01  0.880E-02
  0.529E-02  0.325E-02  0.201E-02  0.128E-02  0.827E-03  0.514E-03  0.752E-05
  0.589E-03  0.114E-01  0.119E+00  0.180E+00  0.182E+00  0.141E+00  0.261E+00
  0.572E+00  0.129E+01  0.204E+01  0.256E+01  0.281E+01  0.245E+01  0.175E+01
  0.120E+01  0.827E+00  0.552E+00  0.354E+00  0.216E+00  0.129E+00  0.785E-01
  0.485E-01  0.306E-01  0.197E-01  0.128E-01  0.846E-02  0.566E-02  0.377E-02
  0.252E-02  0.167E-02  0.104E-02  0.800E-05  0.717E-03  0.195E-01  0.290E+00
  0.143E+01  0.254E+01  0.463E+01  0.689E+01  0.724E+01  0.663E+01  0.587E+01
  0.492E+01  0.405E+01  0.315E+01  0.220E+01  0.143E+01  0.904E+00  0.558E+00
  0.345E+00  0.215E+00  0.136E+00  0.886E-01  0.590E-01  0.400E-01  0.275E-01
  0.190E-01  0.131E-01  0.897E-02  0.606E-02  0.403E-02  0.265E-02  0.165E-02
  0.551E-05  0.580E-03  0.224E-01  0.556E+00  0.101E+02  0.291E+02  0.669E+02
  0.621E+02  0.338E+02  0.139E+02  0.829E+01  0.659E+01  0.501E+01  0.328E+01
  0.207E+01  0.127E+01  0.817E+00  0.544E+00  0.368E+00  0.250E+00  0.171E+00
  0.117E+00  0.810E-01  0.561E-01  0.386E-01  0.263E-01  0.178E-01  0.119E-01
  0.783E-02  0.509E-02  0.328E-02  0.204E-02  0.389E-05  0.439E-03  0.191E-01
  0.570E+00  0.986E+01  0.286E+02  0.761E+02  0.719E+02  0.419E+02  0.201E+02
  0.977E+01  0.616E+01  0.417E+01  0.268E+01  0.174E+01  0.116E+01  0.824E+00
  0.607E+00  0.441E+00  0.311E+00  0.216E+00  0.149E+00  0.102E+00  0.694E-01
  0.466E-01  0.309E-01  0.203E-01  0.132E-01  0.852E-02  0.546E-02  0.349E-02
  0.217E-02  0.581E-05  0.617E-03  0.214E-01  0.546E+00  0.796E+01  0.241E+02
  0.589E+02  0.586E+02  0.272E+02  0.137E+02  0.869E+01  0.552E+01  0.381E+01
  0.249E+01  0.166E+01  0.119E+01  0.888E+00  0.667E+00  0.497E+00  0.358E+00
  0.250E+00  0.170E+00  0.114E+00  0.758E-01  0.497E-01  0.323E-01  0.208E-01
  0.134E-01  0.857E-02  0.548E-02  0.352E-02  0.218E-02
20080312 180000
'W006N476  '  47.60  -6.00     148.2   9.65 268.2   0.00 270.0
  0.126E-05  0.179E-03  0.940E-02  0.228E+00  0.322E+01  0.848E+01  0.184E+02
  0.367E+02  0.240E+02  0.105E+02  0.654E+01  0.512E+01  0.391E+01  0.262E+01
  0.166E+01  0.113E+01  0.853E+00  0.648E+00  0.485E+00  0.349E+00  0.243E+00
  0.165E+00  0.111E+00  0.732E-01  0.479E-01  0.310E-01  0.200E-01  0.129E-01
  0.826E-02  0.530E-02  0.340E-02  0.211E-02  0.162E-05  0.242E-03  0.126E-01
  0.280E+00  0.257E+01  0.314E+01  0.210E+01  0.112E+01  0.749E+01  0.765E+01
  0.554E+01  0.479E+01  0.395E+01  0.289E+01  0.185E+01  0.121E+01  0.862E+00
  0.645E+00  0.471E+00  0.333E+00  0.229E+00  0.155E+00  0.104E+00  0.696E-01
  0.461E-01  0.302E-01  0.196E-01  0.127E-01  0.821E-02  0.528E-02  0.339E-02
  0.211E-02  0.194E-05  0.237E-03  0.101E-01  0.183E+00  0.913E+00  0.469E+00
  0.127E+00  0.263E+00  0.284E+00  0.189E+01  0.432E+01  0.380E+01  0.341E+01
  0.263E+01  0.181E+01  0.115E+01  0.779E+00  0.549E+00  0.392E+00  0.275E+00
  0.190E+00  0.130E+00  0.882E-01  0.599E-01  0.407E-01  0.274E-01  0.183E-01
  0.121E-01  0.790E-02  0.512E-02  0.330E-02  0.205E-02  0.281E-05  0.149E-03
  0.402E-02  0.459E-01  0.913E-01  0.280E-01  0.409E-01  0.678E-01  0.144E+00
  0.328E+00  0.121E+01  0.317E+01  0.270E+01  0.206E+01  0.146E+01  0.991E+00
  0.672E+00  0.470E+00  0.317E+00  0.209E+00  0.139E+00  0.958E-01  0.668E-01
  0.466E-01  0.323E-01  0.221E-01  0.151E-01  0.102E-01  0.679E-02  0.447E-02
  0.291E-02  0.181E-02  0.332E-04  0.921E-04  0.929E-03  0.663E-02  0.257E-01
  0.739E-01  0.139E+00  0.173E+00  0.168E+00  0.221E+00  0.407E+00  0.107E+01
  0.221E+01  0.152E+01  0.107E+01  0.743E+00  0.523E+00  0.371E+00  0.260E+00
  0.175E+00  0.115E+00  0.747E-01  0.491E-01  0.327E-01  0.221E-01  0.150E-01
  0.102E-01  0.695E-02  0.468E-02  0.314E-02  0.209E-02  0.130E-02  0.130E-04
  0.575E-04  0.913E-03  0.703E-02  0.322E-01  0.927E-01  0.164E+00  0.194E+00
  0.154E+00  0.148E+00  0.213E+00  0.381E+00  0.806E+00  0.112E+01  0.688E+00
  0.504E+00  0.361E+00  0.258E+00  0.183E+00  0.127E+00  0.857E-01  0.571E-01
  0.375E-01  0.243E-01  0.155E-01  0.986E-02  0.633E-02  0.410E-02  0.264E-02
  0.173E-02  0.114E-02  0.706E-03  0.368E-06  0.408E-04  0.837E-03  0.609E-02
  0.277E-01  0.681E-01  0.100E+00  0.105E+00  0.725E-01  0.563E-01  0.703E-01
  0.103E+00  0.183E+00  0.315E+00  0.367E+00  0.265E+00  0.212E+00  0.155E+00
  0.108E+00  0.739E-01  0.495E-01  0.327E-01  0.213E-01  0.136E-01  0.840E-02
  0.509E-02  0.306E-02  0.184E-02  0.109E-02  0.666E-03  0.410E-03  0.255E-03
  0.155E-06  0.882E-05  0.251E-03  0.235E-02  0.136E-01  0.383E-01  0.672E-01
  0.799E-01  0.558E-01  0.322E-01  0.272E-01  0.301E-01  0.389E-01  0.540E-01
  0.792E-01  0.854E-01  0.750E-01  0.611E-01  0.433E-01  0.292E-01  0.190E-01
  0.118E-01  0.713E-02  0.418E-02  0.238E-02  0.133E-02  0.723E-03  0.386E-03
  0.201E-03  0.106E-03  0.563E-04  0.349E-04  0.306E-07  0.233E-05  0.748E-04
  0.107E-02  0.777E-02  0.320E-01  0.100E+00  0.144E+00  0.101E+00  0.554E-01
  0.314E-01  0.215E-01  0.148E-01  0.112E-01  0.104E-01  0.112E-01  0.989E-02
  0.703E-02  0.511E-02  0.375E-02  0.250E-02  0.152E-02  0.856E-03  0.447E-03
  0.220E-03  0.103E-03  0.466E-04  0.207E-04  0.880E-05  0.371E-05  0.154E-05
  0.956E-06  0.230E-07  0.187E-05  0.513E-04  0.646E-03  0.378E-02  0.179E-01
  0.704E-01  0.132E+00  0.118E+00  0.736E-01  0.423E-01  0.261E-01  0.144E-01
  0.637E-02  0.255E-02  0.116E-02  0.616E-03  0.269E-03  0.111E-03  0.597E-04
  0.345E-04  0.206E-04  0.116E-04  0.579E-05  0.260E-05  0.106E-05  0.411E-06
  0.157E-06  0.637E-07  0.277E-07  0.130E-07  0.810E-08  0.192E-07  0.152E-05
  0.389E-04  0.478E-03  0.254E-02  0.685E-02  0.170E-01  0.340E-01  0.389E-01
  0.329E-01  0.238E-01  0.169E-01  0.105E-01  0.497E-02  0.172E-02  0.402E-03
  0.584E-04  0.912E-05  0.254E-05  0.984E-06  0.462E-06  0.204E-06  0.694E-07
  0.224E-07  0.773E-08  0.272E-08  0.102E-08  0.387E-09  0.207E-09  0.111E-09
  0.600E-10  0.373E-10  0.306E-07  0.240E-05  0.581E-04  0.737E-03  0.324E-02
  0.514E-02  0.865E-02  0.146E-01  0.157E-01  0.145E-01  0.125E-01  0.103E-01
  0.757E-02  0.444E-02  0.201E-02  0.575E-03  0.118E-03  0.281E-04  0.991E-05
  0.298E-05  0.782E-06  0.154E-06  0.200E-07  0.181E-08  0.980E-10  0.561E-11
  0.241E-12  0.320E-13  0.138E-13  0.847E-14  0.635E-14  0.394E-14  0.576E-07
  0.515E-05  0.152E-03  0.254E-02  0.153E-01  0.243E-01  0.375E-01  0.309E-01
  0.186E-01  0.134E-01  0.140E-01  0.140E-01  0.101E-01  0.648E-02  0.426E-02
  0.251E-02  0.130E-02  0.537E-03  0.163E-03  0.363E-04  0.540E-05  0.393E-06
  0.929E-08  0.740E-09  0.413E-10  0.161E-11  0.582E-13  0.403E-14  0.762E-15
  0.157E-14  0.906E-15  0.563E-15  0.500E-07  0.490E-05  0.164E-03  0.318E-02
  0.250E-01  0.530E-01  0.110E+00  0.108E+00  0.719E-01  0.519E-01  0.527E-01
  0.511E-01  0.373E-01  0.246E-01  0.160E-01  0.976E-02  0.533E-02  0.235E-02
  0.737E-03  0.157E-03  0.199E-04  0.177E-05  0.321E-06  0.402E-07  0.614E-09
  0.873E-10  0.501E-10  0.168E-09  0.267E-09  0.152E-09  0.291E-10  0.180E-10
  0.190E-07  0.218E-05  0.814E-04  0.180E-02  0.161E-01  0.401E-01  0.982E-01
  0.109E+00  0.771E-01  0.536E-01  0.497E-01  0.453E-01  0.338E-01  0.229E-01
  0.150E-01  0.952E-02  0.560E-02  0.275E-02  0.101E-02  0.290E-03  0.747E-04
  0.274E-04  0.102E-04  0.519E-05  0.937E-05  0.124E-04  0.886E-05  0.386E-05
  0.108E-05  0.193E-06  0.209E-07  0.130E-07  0.408E-08  0.446E-06  0.179E-04
  0.412E-03  0.380E-02  0.111E-01  0.311E-01  0.369E-01  0.262E-01  0.180E-01
  0.149E-01  0.131E-01  0.106E-01  0.802E-02  0.630E-02  0.527E-02  0.445E-02
  0.337E-02  0.235E-02  0.173E-02  0.144E-02  0.173E-02  0.213E-02  0.184E-02
  0.119E-02  0.612E-03  0.252E-03  0.804E-04  0.192E-04  0.344E-05  0.491E-06
  0.305E-06  0.398E-08  0.282E-06  0.695E-05  0.109E-03  0.701E-03  0.193E-02
  0.534E-02  0.817E-02  0.113E-01  0.173E-01  0.217E-01  0.213E-01  0.203E-01
  0.200E-01  0.213E-01  0.241E-01  0.256E-01  0.262E-01  0.302E-01  0.345E-01
  0.314E-01  0.235E-01  0.157E-01  0.941E-02  0.502E-02  0.232E-02  0.907E-03
  0.303E-03  0.907E-04  0.266E-04  0.813E-05  0.505E-05  0.655E-08  0.340E-06
  0.719E-05  0.134E-03  0.161E-02  0.658E-02  0.234E-01  0.373E-01  0.458E-01
  0.594E-01  0.795E-01  0.929E-01  0.110E+00  0.144E+00  0.180E+00  0.201E+00
  0.207E+00  0.190E+00  0.150E+00  0.109E+00  0.749E-01  0.488E-01  0.298E-01
  0.168E-01  0.860E-02  0.410E-02  0.188E-02  0.861E-03  0.399E-03  0.196E-03
  0.101E-03  0.625E-04  0.125E-06  0.132E-04  0.457E-03  0.567E-02  0.197E-01
  0.219E-01  0.386E-01  0.582E-01  0.828E-01  0.133E+00  0.237E+00  0.419E+00
  0.639E+00  0.856E+00  0.867E+00  0.689E+00  0.501E+00  0.357E+00  0.248E+00
  0.165E+00  0.105E+00  0.632E-01  0.365E-01  0.207E-01  0.117E-01  0.663E-02
  0.383E-02  0.226E-02  0.134E-02  0.818E-03  0.507E-03  0.315E-03  0.747E-06
  0.856E-04  0.321E-02  0.423E-01  0.145E+00  0.102E+00  0.668E-01  0.125E+00
  0.299E+00  0.776E+00  0.148E+01  0.205E+01  0.237E+01  0.215E+01  0.155E+01
  0.105E+01  0.719E+00  0.480E+00  0.306E+00  0.186E+00  0.111E+00  0.671E-01
  0.413E-01  0.258E-01  0.163E-01  0.104E-01  0.670E-02  0.436E-02  0.283E-02
  0.185E-02  0.121E-02  0.752E-03  0.112E-05  0.138E-03  0.586E-02  0.978E-01
  0.767E+00  0.130E+01  0.286E+01  0.559E+01  0.606E+01  0.566E+01  0.492E+01
  0.429E+01  0.356E+01  0.281E+01  0.198E+01  0.127E+01  0.796E+00  0.490E+00
  0.303E+00  0.189E+00  0.120E+00  0.767E-01  0.500E-01  0.332E-01  0.223E-01
  0.151E-01  0.102E-01  0.694E-02  0.466E-02  0.311E-02  0.205E-02  0.127E-02
  0.880E-06  0.129E-03  0.741E-02  0.203E+00  0.377E+01  0.162E+02  0.443E+02
  0.602E+02  0.325E+02  0.128E+02  0.701E+01  0.556E+01  0.434E+01  0.292E+01
  0.183E+01  0.112E+01  0.715E+00  0.477E+00  0.317E+00  0.210E+00  0.139E+00
  0.945E-01  0.654E-01  0.457E-01  0.319E-01  0.220E-01  0.151E-01  0.102E-01
  0.676E-02  0.443E-02  0.288E-02  0.179E-02  0.596E-06  0.933E-04  0.612E-02
  0.208E+00  0.401E+01  0.164E+02  0.486E+02  0.681E+02  0.371E+02  0.180E+02
  0.849E+01  0.521E+01  0.359E+01  0.235E+01  0.152E+01  0.101E+01  0.693E+00
  0.499E+00  0.363E+00  0.260E+00  0.183E+00  0.127E+00  0.883E-01  0.608E-01
  0.414E-01  0.278E-01  0.185E-01  0.122E-01  0.794E-02  0.512E-02  0.328E-02
  0.204E-02  0.741E-06  0.113E-03  0.669E-02  0.200E+00  0.352E+01  0.155E+02
  0.471E+02  0.593E+02  0.276E+02  0.133E+02  0.758E+01  0.485E+01  0.340E+01
  0.224E+01  0.147E+01  0.103E+01  0.761E+00  0.576E+00  0.437E+00  0.319E+00
  0.224E+00  0.154E+00  0.105E+00  0.705E-01  0.468E-01  0.307E-01  0.199E-01
  0.129E-01  0.826E-02  0.529E-02  0.339E-02  0.210E-02
20080312 210000
'W006N476  '  47.60  -6.00     148.2   8.66 266.9   0.00 270.0
  0.267E-06  0.425E-04  0.295E-02  0.863E-01  0.155E+01  0.633E+01  0.149E+02
  0.322E+02  0.247E+02  0.103E+02  0.566E+01  0.460E+01  0.362E+01  0.249E+01
  0.157E+01  0.101E+01  0.715E+00  0.538E+00  0.405E+00  0.297E+00  0.211E+00
  0.147E+00  0.999E-01  0.670E-01  0.443E-01  0.289E-01  0.187E-01  0.121E-01
  0.772E-02  0.494E-02  0.316E-02  0.196E-02  0.299E-06  0.616E-04  0.450E-02
  0.123E+00  0.157E+01  0.280E+01  0.196E+01  0.894E+00  0.533E+01  0.665E+01
  0.466E+01  0.402E+01  0.343E+01  0.271E+01  0.178E+01  0.112E+01  0.755E+00
  0.552E+00  0.405E+00  0.292E+00  0.204E+00  0.140E+00  0.946E-01  0.638E-01
  0.425E-01  0.280E-01  0.183E-01  0.119E-01  0.766E-02  0.492E-02  0.316E-02
  0.196E-02  0.353E-06  0.664E-04  0.401E-02  0.865E-01  0.669E+00  0.480E+00
  0.849E-01  0.201E+00  0.183E+00  0.101E+01  0.338E+01  0.311E+01  0.290E+01
  0.236E+01  0.168E+01  0.110E+01  0.727E+00  0.504E+00  0.355E+00  0.249E+00
  0.173E+00  0.119E+00  0.806E-01  0.548E-01  0.372E-01  0.251E-01  0.168E-01
  0.111E-01  0.731E-02  0.475E-02  0.307E-02  0.191E-02  0.208E-05  0.570E-04
  0.171E-02  0.226E-01  0.774E-01  0.251E-01  0.313E-01  0.463E-01  0.965E-01
  0.203E+00  0.598E+00  0.203E+01  0.228E+01  0.182E+01  0.132E+01  0.927E+00
  0.635E+00  0.446E+00  0.308E+00  0.206E+00  0.135E+00  0.909E-01  0.623E-01
  0.431E-01  0.297E-01  0.203E-01  0.139E-01  0.938E-02  0.627E-02  0.414E-02
  0.271E-02  0.169E-02  0.633E-04  0.142E-03  0.706E-03  0.598E-02  0.303E-01
  0.818E-01  0.160E+00  0.175E+00  0.137E+00  0.146E+00  0.206E+00  0.468E+00
  0.128E+01  0.138E+01  0.948E+00  0.682E+00  0.489E+00  0.353E+00  0.253E+00
  0.174E+00  0.116E+00  0.759E-01  0.497E-01  0.328E-01  0.219E-01  0.146E-01
  0.984E-02  0.664E-02  0.445E-02  0.298E-02  0.198E-02  0.123E-02  0.239E-04
  0.839E-04  0.824E-03  0.774E-02  0.411E-01  0.108E+00  0.190E+00  0.204E+00
  0.138E+00  0.104E+00  0.111E+00  0.170E+00  0.362E+00  0.750E+00  0.650E+00
  0.455E+00  0.335E+00  0.243E+00  0.177E+00  0.127E+00  0.880E-01  0.598E-01
  0.400E-01  0.263E-01  0.170E-01  0.109E-01  0.694E-02  0.445E-02  0.282E-02
  0.182E-02  0.118E-02  0.731E-03  0.462E-06  0.548E-04  0.973E-03  0.815E-02
  0.385E-01  0.853E-01  0.119E+00  0.112E+00  0.690E-01  0.407E-01  0.380E-01
  0.508E-01  0.861E-01  0.170E+00  0.289E+00  0.249E+00  0.191E+00  0.147E+00
  0.105E+00  0.743E-01  0.520E-01  0.361E-01  0.247E-01  0.166E-01  0.108E-01
  0.676E-02  0.416E-02  0.253E-02  0.150E-02  0.905E-03  0.544E-03  0.338E-03
  0.240E-06  0.171E-04  0.386E-03  0.337E-02  0.175E-01  0.489E-01  0.782E-01
  0.847E-01  0.559E-01  0.293E-01  0.184E-01  0.188E-01  0.235E-01  0.335E-01
  0.553E-01  0.754E-01  0.697E-01  0.588E-01  0.444E-01  0.312E-01  0.214E-01
  0.143E-01  0.937E-02  0.613E-02  0.394E-02  0.244E-02  0.146E-02  0.838E-03
  0.458E-03  0.248E-03  0.132E-03  0.817E-04  0.307E-07  0.244E-05  0.980E-04
  0.137E-02  0.933E-02  0.392E-01  0.102E+00  0.148E+00  0.107E+00  0.610E-01
  0.310E-01  0.201E-01  0.136E-01  0.956E-02  0.879E-02  0.993E-02  0.100E-01
  0.770E-02  0.589E-02  0.473E-02  0.346E-02  0.229E-02  0.141E-02  0.836E-03
  0.481E-03  0.274E-03  0.155E-03  0.847E-04  0.434E-04  0.209E-04  0.934E-05
  0.580E-05  0.151E-07  0.139E-05  0.453E-04  0.702E-03  0.469E-02  0.219E-01
  0.748E-01  0.137E+00  0.127E+00  0.836E-01  0.469E-01  0.280E-01  0.158E-01
  0.722E-02  0.284E-02  0.124E-02  0.670E-03  0.349E-03  0.175E-03  0.113E-03
  0.789E-04  0.544E-04  0.348E-04  0.196E-04  0.995E-05  0.466E-05  0.214E-05
  0.965E-06  0.447E-06  0.202E-06  0.866E-07  0.538E-07  0.903E-08  0.733E-06
  0.243E-04  0.395E-03  0.280E-02  0.808E-02  0.195E-01  0.346E-01  0.387E-01
  0.330E-01  0.247E-01  0.180E-01  0.115E-01  0.584E-02  0.226E-02  0.631E-03
  0.114E-03  0.155E-04  0.538E-05  0.278E-05  0.156E-05  0.909E-06  0.474E-06
  0.216E-06  0.903E-07  0.347E-07  0.134E-07  0.500E-08  0.255E-08  0.131E-08
  0.685E-09  0.425E-09  0.144E-07  0.722E-06  0.242E-04  0.362E-03  0.227E-02
  0.464E-02  0.895E-02  0.140E-01  0.134E-01  0.123E-01  0.107E-01  0.914E-02
  0.714E-02  0.461E-02  0.242E-02  0.950E-03  0.218E-03  0.433E-04  0.127E-04
  0.459E-05  0.132E-05  0.319E-06  0.537E-07  0.604E-08  0.574E-09  0.743E-10
  0.176E-10  0.462E-11  0.243E-11  0.128E-11  0.683E-12  0.424E-12  0.265E-07
  0.139E-05  0.590E-04  0.118E-02  0.932E-02  0.175E-01  0.302E-01  0.288E-01
  0.156E-01  0.982E-02  0.956E-02  0.105E-01  0.872E-02  0.581E-02  0.381E-02
  0.239E-02  0.133E-02  0.640E-03  0.244E-03  0.704E-04  0.149E-04  0.184E-05
  0.681E-07  0.711E-09  0.152E-10  0.477E-12  0.199E-13  0.239E-15  0.953E-15
  0.104E-14  0.140E-14  0.869E-15  0.210E-07  0.124E-05  0.613E-04  0.144E-02
  0.148E-01  0.372E-01  0.869E-01  0.101E+00  0.619E-01  0.392E-01  0.373E-01
  0.398E-01  0.328E-01  0.219E-01  0.141E-01  0.882E-02  0.517E-02  0.265E-02
  0.107E-02  0.313E-03  0.603E-04  0.525E-05  0.182E-06  0.169E-07  0.240E-09
  0.273E-10  0.800E-11  0.384E-10  0.511E-10  0.423E-10  0.918E-11  0.570E-11
  0.610E-08  0.494E-06  0.295E-04  0.788E-03  0.914E-02  0.275E-01  0.755E-01
  0.102E+00  0.675E-01  0.422E-01  0.372E-01  0.364E-01  0.295E-01  0.202E-01
  0.130E-01  0.824E-02  0.507E-02  0.282E-02  0.127E-02  0.424E-03  0.100E-03
  0.182E-04  0.469E-05  0.150E-05  0.393E-05  0.632E-05  0.496E-05  0.228E-05
  0.648E-06  0.111E-06  0.110E-07  0.683E-08  0.994E-09  0.103E-06  0.619E-05
  0.175E-03  0.212E-02  0.735E-02  0.233E-01  0.346E-01  0.231E-01  0.147E-01
  0.118E-01  0.105E-01  0.887E-02  0.655E-02  0.478E-02  0.375E-02  0.322E-02
  0.261E-02  0.181E-02  0.122E-02  0.913E-03  0.103E-02  0.137E-02  0.129E-02
  0.882E-03  0.470E-03  0.195E-03  0.607E-04  0.139E-04  0.228E-05  0.284E-06
  0.177E-06  0.128E-08  0.100E-06  0.320E-05  0.584E-04  0.451E-03  0.133E-02
  0.400E-02  0.669E-02  0.874E-02  0.130E-01  0.163E-01  0.157E-01  0.150E-01
  0.141E-01  0.143E-01  0.164E-01  0.180E-01  0.183E-01  0.206E-01  0.245E-01
  0.238E-01  0.187E-01  0.129E-01  0.794E-02  0.428E-02  0.197E-02  0.755E-03
  0.241E-03  0.674E-04  0.179E-04  0.488E-05  0.303E-05  0.497E-08  0.159E-06
  0.414E-05  0.106E-03  0.103E-02  0.465E-02  0.174E-01  0.297E-01  0.332E-01
  0.399E-01  0.528E-01  0.598E-01  0.668E-01  0.863E-01  0.115E+00  0.140E+00
  0.151E+00  0.146E+00  0.121E+00  0.908E-01  0.635E-01  0.420E-01  0.260E-01
  0.147E-01  0.757E-02  0.356E-02  0.158E-02  0.692E-03  0.306E-03  0.142E-03
  0.687E-04  0.427E-04  0.183E-07  0.232E-05  0.108E-03  0.143E-02  0.151E-01
  0.156E-01  0.270E-01  0.419E-01  0.526E-01  0.765E-01  0.132E+00  0.240E+00
  0.396E+00  0.577E+00  0.651E+00  0.560E+00  0.418E+00  0.303E+00  0.214E+00
  0.144E+00  0.923E-01  0.559E-01  0.323E-01  0.182E-01  0.102E-01  0.575E-02
  0.328E-02  0.189E-02  0.110E-02  0.652E-03  0.394E-03  0.244E-03  0.922E-07
  0.156E-04  0.785E-03  0.115E-01  0.124E+00  0.684E-01  0.396E-01  0.591E-01
  0.137E+00  0.345E+00  0.804E+00  0.137E+01  0.182E+01  0.181E+01  0.136E+01
  0.927E+00  0.629E+00  0.424E+00  0.274E+00  0.167E+00  0.994E-01  0.597E-01
  0.366E-01  0.228E-01  0.144E-01  0.915E-02  0.584E-02  0.375E-02  0.240E-02
  0.156E-02  0.101E-02  0.625E-03  0.177E-06  0.314E-04  0.181E-02  0.365E-01
  0.422E+00  0.744E+00  0.134E+01  0.458E+01  0.500E+01  0.426E+01  0.386E+01
  0.361E+01  0.306E+01  0.250E+01  0.179E+01  0.115E+01  0.715E+00  0.443E+00
  0.273E+00  0.171E+00  0.108E+00  0.689E-01  0.447E-01  0.293E-01  0.195E-01
  0.130E-01  0.877E-02  0.593E-02  0.396E-02  0.263E-02  0.174E-02  0.108E-02
  0.176E-06  0.361E-04  0.263E-02  0.821E-01  0.140E+01  0.807E+01  0.223E+02
  0.574E+02  0.312E+02  0.121E+02  0.601E+01  0.469E+01  0.373E+01  0.267E+01
  0.167E+01  0.100E+01  0.631E+00  0.420E+00  0.281E+00  0.188E+00  0.124E+00
  0.822E-01  0.555E-01  0.383E-01  0.268E-01  0.186E-01  0.128E-01  0.875E-02
  0.587E-02  0.389E-02  0.255E-02  0.158E-02  0.358E-06  0.346E-04  0.222E-02
  0.835E-01  0.163E+01  0.896E+01  0.293E+02  0.664E+02  0.340E+02  0.168E+02
  0.761E+01  0.456E+01  0.322E+01  0.217E+01  0.137E+01  0.889E+00  0.601E+00
  0.425E+00  0.305E+00  0.216E+00  0.153E+00  0.108E+00  0.756E-01  0.525E-01
  0.361E-01  0.245E-01  0.165E-01  0.110E-01  0.719E-02  0.466E-02  0.300E-02
  0.186E-02  0.298E-06  0.338E-04  0.223E-02  0.770E-01  0.146E+01  0.927E+01
  0.324E+02  0.583E+02  0.297E+02  0.140E+02  0.676E+01  0.440E+01  0.314E+01
  0.210E+01  0.134E+01  0.910E+00  0.637E+00  0.470E+00  0.357E+00  0.267E+00
  0.191E+00  0.134E+00  0.922E-01  0.628E-01  0.423E-01  0.281E-01  0.184E-01
  0.119E-01  0.767E-02  0.491E-02  0.314E-02  0.195E-02
