'WAVEWATCH III SPECTRA'     32    24     1 'MULTIGRID GLOBAL05+OTHERS     '
 0.373E-01 0.410E-01 0.451E-01 0.496E-01 0.546E-01 0.601E-01 0.661E-01 0.727E-01
 0.800E-01 0.880E-01 0.967E-01 0.106E+00 0.117E+00 0.129E+00 0.142E+00 0.156E+00
 0.171E+00 0.189E+00 0.207E+00 0.228E+00 0.251E+00 0.276E+00 0.304E+00 0.334E+00
 0.367E+00 0.404E+00 0.445E+00 0.489E+00 0.538E+00 0.592E+00 0.651E+00 0.716E+00
  0.157E+01  0.131E+01  0.105E+01  0.785E+00  0.524E+00  0.262E+00  0.000E+00
  0.602E+01  0.576E+01  0.550E+01  0.524E+01  0.497E+01  0.471E+01  0.445E+01
  0.419E+01  0.393E+01  0.367E+01  0.340E+01  0.314E+01  0.288E+01  0.262E+01
  0.236E+01  0.209E+01  0.183E+01
20080310 000000
'W006N482  '  48.20  -6.00     127.1  22.34 213.7   0.00 270.0
  0.539E-05  0.520E-03  0.205E-01  0.367E+00  0.398E+01  0.142E+02  0.217E+02
  0.210E+02  0.280E+02  0.268E+02  0.207E+02  0.141E+02  0.807E+01  0.394E+01
  0.215E+01  0.157E+01  0.130E+01  0.947E+00  0.692E+00  0.503E+00  0.340E+00
  0.225E+00  0.152E+00  0.997E-01  0.643E-01  0.413E-01  0.263E-01  0.168E-01
  0.107E-01  0.680E-02  0.433E-02  0.269E-02  0.461E-05  0.543E-03  0.244E-01
  0.405E+00  0.254E+01  0.286E+01  0.164E+01  0.107E+01  0.344E+01  0.194E+02
  0.245E+02  0.185E+02  0.121E+02  0.744E+01  0.382E+01  0.239E+01  0.187E+01
  0.136E+01  0.908E+00  0.623E+00  0.423E+00  0.279E+00  0.185E+00  0.122E+00
  0.791E-01  0.511E-01  0.332E-01  0.214E-01  0.137E-01  0.883E-02  0.567E-02
  0.352E-02  0.490E-05  0.509E-03  0.185E-01  0.218E+00  0.828E+00  0.436E+00
  0.306E+00  0.403E+00  0.968E+00  0.593E+01  0.252E+02  0.246E+02  0.155E+02
  0.104E+02  0.615E+01  0.333E+01  0.227E+01  0.160E+01  0.105E+01  0.676E+00
  0.444E+00  0.292E+00  0.194E+00  0.130E+00  0.863E-01  0.567E-01  0.373E-01
  0.246E-01  0.160E-01  0.103E-01  0.668E-02  0.415E-02  0.406E-05  0.362E-03
  0.101E-01  0.845E-01  0.134E+00  0.218E-01  0.798E-01  0.303E+00  0.765E+00
  0.218E+01  0.974E+01  0.268E+02  0.186E+02  0.107E+02  0.727E+01  0.451E+01
  0.260E+01  0.175E+01  0.112E+01  0.699E+00  0.452E+00  0.296E+00  0.195E+00
  0.130E+00  0.877E-01  0.588E-01  0.392E-01  0.261E-01  0.172E-01  0.112E-01
  0.728E-02  0.452E-02  0.204E-05  0.127E-03  0.237E-02  0.964E-02  0.750E-02
  0.245E-01  0.720E-01  0.267E+00  0.926E+00  0.205E+01  0.499E+01  0.133E+02
  0.205E+02  0.977E+01  0.633E+01  0.465E+01  0.302E+01  0.190E+01  0.124E+01
  0.748E+00  0.465E+00  0.304E+00  0.199E+00  0.131E+00  0.868E-01  0.577E-01
  0.384E-01  0.257E-01  0.171E-01  0.112E-01  0.731E-02  0.454E-02  0.271E-06
  0.105E-04  0.159E-03  0.180E-02  0.110E-01  0.484E-01  0.113E+00  0.224E+00
  0.618E+00  0.161E+01  0.256E+01  0.478E+01  0.912E+01  0.103E+02  0.499E+01
  0.372E+01  0.283E+01  0.193E+01  0.129E+01  0.841E+00  0.513E+00  0.322E+00
  0.206E+00  0.132E+00  0.858E-01  0.559E-01  0.364E-01  0.239E-01  0.157E-01
  0.103E-01  0.675E-02  0.419E-02  0.273E-08  0.443E-06  0.386E-04  0.781E-03
  0.633E-02  0.307E-01  0.702E-01  0.110E+00  0.192E+00  0.635E+00  0.918E+00
  0.112E+01  0.201E+01  0.369E+01  0.398E+01  0.258E+01  0.219E+01  0.162E+01
  0.113E+01  0.786E+00  0.529E+00  0.340E+00  0.217E+00  0.137E+00  0.857E-01
  0.539E-01  0.343E-01  0.219E-01  0.140E-01  0.903E-02  0.584E-02  0.363E-02
  0.273E-08  0.371E-06  0.177E-04  0.342E-03  0.341E-02  0.173E-01  0.439E-01
  0.696E-01  0.590E-01  0.135E+00  0.272E+00  0.261E+00  0.332E+00  0.607E+00
  0.110E+01  0.133E+01  0.118E+01  0.108E+01  0.803E+00  0.571E+00  0.408E+00
  0.283E+00  0.192E+00  0.128E+00  0.819E-01  0.512E-01  0.318E-01  0.198E-01
  0.122E-01  0.767E-02  0.483E-02  0.300E-02  0.226E-08  0.226E-06  0.105E-04
  0.191E-03  0.204E-02  0.107E-01  0.427E-01  0.796E-01  0.522E-01  0.346E-01
  0.568E-01  0.717E-01  0.784E-01  0.117E+00  0.198E+00  0.305E+00  0.341E+00
  0.324E+00  0.320E+00  0.275E+00  0.218E+00  0.165E+00  0.119E+00  0.844E-01
  0.584E-01  0.390E-01  0.252E-01  0.159E-01  0.978E-02  0.598E-02  0.364E-02
  0.226E-02  0.754E-08  0.693E-06  0.240E-04  0.303E-03  0.181E-02  0.517E-02
  0.126E-01  0.237E-01  0.210E-01  0.142E-01  0.986E-02  0.131E-01  0.165E-01
  0.237E-01  0.390E-01  0.552E-01  0.673E-01  0.668E-01  0.635E-01  0.608E-01
  0.558E-01  0.516E-01  0.448E-01  0.357E-01  0.270E-01  0.196E-01  0.137E-01
  0.930E-02  0.603E-02  0.377E-02  0.227E-02  0.141E-02  0.183E-07  0.188E-05
  0.743E-04  0.994E-03  0.628E-02  0.149E-01  0.221E-01  0.267E-01  0.204E-01
  0.142E-01  0.970E-02  0.744E-02  0.643E-02  0.598E-02  0.695E-02  0.851E-02
  0.902E-02  0.878E-02  0.820E-02  0.773E-02  0.714E-02  0.625E-02  0.535E-02
  0.475E-02  0.447E-02  0.407E-02  0.344E-02  0.270E-02  0.200E-02  0.139E-02
  0.902E-03  0.560E-03  0.184E-07  0.198E-05  0.836E-04  0.125E-02  0.910E-02
  0.247E-01  0.364E-01  0.392E-01  0.291E-01  0.198E-01  0.137E-01  0.101E-01
  0.780E-02  0.567E-02  0.395E-02  0.247E-02  0.138E-02  0.868E-03  0.751E-03
  0.698E-03  0.622E-03  0.509E-03  0.383E-03  0.278E-03  0.206E-03  0.154E-03
  0.123E-03  0.108E-03  0.104E-03  0.945E-04  0.790E-04  0.491E-04  0.579E-08
  0.646E-06  0.288E-04  0.459E-03  0.350E-02  0.107E-01  0.183E-01  0.219E-01
  0.165E-01  0.112E-01  0.774E-02  0.588E-02  0.469E-02  0.343E-02  0.235E-02
  0.132E-02  0.515E-03  0.127E-03  0.369E-04  0.343E-04  0.372E-04  0.339E-04
  0.269E-04  0.192E-04  0.129E-04  0.799E-05  0.472E-05  0.263E-05  0.160E-05
  0.102E-05  0.680E-06  0.422E-06  0.129E-08  0.147E-06  0.660E-05  0.104E-03
  0.809E-03  0.273E-02  0.543E-02  0.702E-02  0.522E-02  0.319E-02  0.198E-02
  0.139E-02  0.112E-02  0.830E-03  0.573E-03  0.320E-03  0.128E-03  0.295E-04
  0.374E-05  0.365E-06  0.224E-06  0.316E-06  0.425E-06  0.470E-06  0.424E-06
  0.331E-06  0.230E-06  0.138E-06  0.759E-07  0.419E-07  0.234E-07  0.145E-07
  0.541E-09  0.597E-07  0.256E-05  0.357E-04  0.249E-03  0.790E-03  0.144E-02
  0.152E-02  0.698E-03  0.274E-03  0.182E-03  0.152E-03  0.154E-03  0.138E-03
  0.102E-03  0.584E-04  0.238E-04  0.501E-05  0.487E-06  0.401E-07  0.170E-08
  0.173E-09  0.151E-09  0.154E-09  0.181E-09  0.247E-09  0.302E-09  0.309E-09
  0.171E-09  0.950E-10  0.532E-10  0.330E-10  0.694E-09  0.676E-07  0.235E-05
  0.238E-04  0.137E-03  0.385E-03  0.468E-03  0.445E-03  0.371E-03  0.324E-03
  0.317E-03  0.373E-03  0.417E-03  0.434E-03  0.345E-03  0.206E-03  0.740E-04
  0.116E-04  0.847E-06  0.437E-07  0.153E-08  0.236E-10  0.244E-12  0.207E-13
  0.792E-14  0.463E-14  0.286E-14  0.201E-14  0.171E-14  0.776E-15  0.363E-15
  0.225E-15  0.234E-08  0.222E-06  0.738E-05  0.772E-04  0.503E-03  0.172E-02
  0.267E-02  0.284E-02  0.230E-02  0.179E-02  0.153E-02  0.150E-02  0.146E-02
  0.137E-02  0.100E-02  0.558E-03  0.225E-03  0.492E-04  0.614E-05  0.481E-06
  0.231E-07  0.760E-09  0.169E-10  0.217E-12  0.136E-14  0.205E-15  0.132E-15
  0.394E-15  0.392E-15  0.107E-15  0.294E-16  0.182E-16  0.639E-08  0.647E-06
  0.244E-04  0.331E-03  0.262E-02  0.109E-01  0.199E-01  0.225E-01  0.174E-01
  0.114E-01  0.725E-02  0.525E-02  0.386E-02  0.306E-02  0.238E-02  0.155E-02
  0.807E-03  0.270E-03  0.521E-04  0.774E-05  0.126E-05  0.155E-06  0.122E-07
  0.770E-09  0.173E-09  0.740E-10  0.341E-10  0.149E-10  0.795E-11  0.430E-11
  0.236E-11  0.146E-11  0.191E-07  0.132E-05  0.304E-04  0.319E-03  0.256E-02
  0.974E-02  0.157E-01  0.168E-01  0.130E-01  0.911E-02  0.668E-02  0.574E-02
  0.523E-02  0.544E-02  0.602E-02  0.668E-02  0.584E-02  0.288E-02  0.108E-02
  0.328E-03  0.642E-04  0.894E-05  0.132E-05  0.317E-06  0.134E-06  0.636E-07
  0.306E-07  0.144E-07  0.776E-08  0.423E-08  0.233E-08  0.145E-08  0.224E-06
  0.164E-04  0.378E-03  0.460E-02  0.315E-01  0.315E-01  0.220E-01  0.201E-01
  0.203E-01  0.197E-01  0.228E-01  0.318E-01  0.456E-01  0.653E-01  0.959E-01
  0.112E+00  0.768E-01  0.301E-01  0.952E-02  0.281E-02  0.709E-03  0.178E-03
  0.540E-04  0.199E-04  0.849E-05  0.395E-05  0.198E-05  0.997E-06  0.532E-06
  0.290E-06  0.157E-06  0.974E-07  0.115E-05  0.101E-03  0.319E-02  0.471E-01
  0.250E+00  0.213E+00  0.259E+00  0.624E+00  0.109E+01  0.838E+00  0.797E+00
  0.947E+00  0.908E+00  0.729E+00  0.549E+00  0.386E+00  0.222E+00  0.908E-01
  0.342E-01  0.143E-01  0.631E-02  0.294E-02  0.148E-02  0.827E-03  0.476E-03
  0.277E-03  0.171E-03  0.105E-03  0.627E-04  0.368E-04  0.208E-04  0.129E-04
  0.288E-05  0.313E-03  0.142E-01  0.295E+00  0.216E+01  0.434E+01  0.683E+01
  0.150E+02  0.157E+02  0.794E+01  0.462E+01  0.305E+01  0.194E+01  0.129E+01
  0.837E+00  0.548E+00  0.364E+00  0.212E+00  0.113E+00  0.622E-01  0.378E-01
  0.235E-01  0.144E-01  0.938E-02  0.619E-02  0.396E-02  0.254E-02  0.160E-02
  0.979E-03  0.585E-03  0.342E-03  0.212E-03  0.440E-05  0.479E-03  0.214E-01
  0.397E+00  0.341E+01  0.120E+02  0.335E+02  0.551E+02  0.332E+02  0.201E+02
  0.125E+02  0.603E+01  0.277E+01  0.149E+01  0.110E+01  0.813E+00  0.562E+00
  0.397E+00  0.274E+00  0.171E+00  0.111E+00  0.764E-01  0.504E-01  0.332E-01
  0.220E-01  0.142E-01  0.904E-02  0.573E-02  0.356E-02  0.219E-02  0.133E-02
  0.827E-03  0.470E-05  0.476E-03  0.193E-01  0.305E+00  0.262E+01  0.150E+02
  0.482E+02  0.623E+02  0.454E+02  0.340E+02  0.222E+02  0.115E+02  0.481E+01
  0.219E+01  0.141E+01  0.116E+01  0.856E+00  0.606E+00  0.462E+00  0.322E+00
  0.214E+00  0.147E+00  0.998E-01  0.651E-01  0.423E-01  0.273E-01  0.173E-01
  0.110E-01  0.692E-02  0.435E-02  0.273E-02  0.169E-02
20080310 030000
'W006N482  '  48.20  -6.00     127.1  21.04 242.6   0.00 270.0
  0.688E-05  0.675E-03  0.248E-01  0.367E+00  0.339E+01  0.110E+02  0.239E+02
  0.529E+02  0.662E+02  0.490E+02  0.240E+02  0.145E+02  0.783E+01  0.504E+01
  0.415E+01  0.313E+01  0.217E+01  0.156E+01  0.106E+01  0.693E+00  0.458E+00
  0.301E+00  0.193E+00  0.124E+00  0.799E-01  0.513E-01  0.332E-01  0.216E-01
  0.140E-01  0.904E-02  0.588E-02  0.365E-02  0.547E-05  0.557E-03  0.231E-01
  0.411E+00  0.285E+01  0.358E+01  0.341E+01  0.119E+02  0.472E+02  0.573E+02
  0.285E+02  0.191E+02  0.118E+02  0.653E+01  0.480E+01  0.372E+01  0.243E+01
  0.158E+01  0.106E+01  0.690E+00  0.451E+00  0.300E+00  0.196E+00  0.127E+00
  0.837E-01  0.549E-01  0.360E-01  0.237E-01  0.154E-01  0.100E-01  0.652E-02
  0.405E-02  0.462E-05  0.446E-03  0.158E-01  0.219E+00  0.108E+01  0.113E+01
  0.127E+01  0.246E+01  0.189E+02  0.552E+02  0.355E+02  0.209E+02  0.142E+02
  0.876E+01  0.528E+01  0.386E+01  0.252E+01  0.157E+01  0.101E+01  0.660E+00
  0.432E+00  0.289E+00  0.193E+00  0.128E+00  0.850E-01  0.567E-01  0.376E-01
  0.249E-01  0.163E-01  0.106E-01  0.683E-02  0.424E-02  0.375E-05  0.314E-03
  0.861E-02  0.806E-01  0.186E+00  0.227E+00  0.988E+00  0.181E+01  0.577E+01
  0.269E+02  0.472E+02  0.218E+02  0.133E+02  0.101E+02  0.610E+01  0.386E+01
  0.258E+01  0.158E+01  0.978E+00  0.639E+00  0.419E+00  0.276E+00  0.185E+00
  0.124E+00  0.825E-01  0.552E-01  0.368E-01  0.243E-01  0.159E-01  0.103E-01
  0.667E-02  0.414E-02  0.192E-05  0.105E-03  0.194E-02  0.931E-02  0.109E-01
  0.751E-01  0.693E+00  0.213E+01  0.447E+01  0.116E+02  0.301E+02  0.261E+02
  0.107E+02  0.838E+01  0.607E+01  0.386E+01  0.254E+01  0.162E+01  0.977E+00
  0.625E+00  0.409E+00  0.266E+00  0.174E+00  0.114E+00  0.754E-01  0.499E-01
  0.331E-01  0.219E-01  0.143E-01  0.932E-02  0.603E-02  0.375E-02  0.275E-06
  0.961E-05  0.162E-03  0.208E-02  0.141E-01  0.564E-01  0.319E+00  0.170E+01
  0.361E+01  0.491E+01  0.992E+01  0.152E+02  0.931E+01  0.534E+01  0.445E+01
  0.322E+01  0.216E+01  0.147E+01  0.949E+00  0.594E+00  0.382E+00  0.245E+00
  0.156E+00  0.100E+00  0.644E-01  0.416E-01  0.271E-01  0.178E-01  0.116E-01
  0.755E-02  0.491E-02  0.305E-02  0.421E-08  0.924E-06  0.503E-04  0.851E-03
  0.645E-02  0.284E-01  0.111E+00  0.630E+00  0.203E+01  0.202E+01  0.248E+01
  0.405E+01  0.519E+01  0.320E+01  0.251E+01  0.218E+01  0.151E+01  0.105E+01
  0.734E+00  0.488E+00  0.317E+00  0.204E+00  0.128E+00  0.796E-01  0.498E-01
  0.313E-01  0.198E-01  0.126E-01  0.809E-02  0.522E-02  0.338E-02  0.210E-02
  0.420E-08  0.478E-06  0.205E-04  0.382E-03  0.320E-02  0.175E-01  0.526E-01
  0.150E+00  0.516E+00  0.700E+00  0.634E+00  0.824E+00  0.141E+01  0.175E+01
  0.134E+01  0.112E+01  0.943E+00  0.665E+00  0.472E+00  0.333E+00  0.226E+00
  0.151E+00  0.970E-01  0.600E-01  0.365E-01  0.221E-01  0.133E-01  0.807E-02
  0.490E-02  0.302E-02  0.188E-02  0.117E-02  0.314E-08  0.304E-06  0.130E-04
  0.238E-03  0.213E-02  0.119E-01  0.434E-01  0.890E-01  0.930E-01  0.140E+00
  0.143E+00  0.156E+00  0.256E+00  0.417E+00  0.507E+00  0.443E+00  0.381E+00
  0.306E+00  0.227E+00  0.168E+00  0.119E+00  0.821E-01  0.556E-01  0.364E-01
  0.227E-01  0.136E-01  0.790E-02  0.448E-02  0.249E-02  0.139E-02  0.783E-03
  0.486E-03  0.746E-08  0.686E-06  0.232E-04  0.313E-03  0.195E-02  0.530E-02
  0.132E-01  0.248E-01  0.233E-01  0.212E-01  0.240E-01  0.292E-01  0.423E-01
  0.674E-01  0.895E-01  0.896E-01  0.732E-01  0.635E-01  0.519E-01  0.407E-01
  0.315E-01  0.230E-01  0.163E-01  0.114E-01  0.763E-02  0.487E-02  0.292E-02
  0.162E-02  0.832E-03  0.409E-03  0.193E-03  0.120E-03  0.174E-07  0.175E-05
  0.672E-04  0.966E-03  0.625E-02  0.147E-01  0.239E-01  0.284E-01  0.216E-01
  0.171E-01  0.144E-01  0.133E-01  0.130E-01  0.135E-01  0.132E-01  0.109E-01
  0.800E-02  0.608E-02  0.475E-02  0.340E-02  0.229E-02  0.159E-02  0.115E-02
  0.840E-03  0.604E-03  0.424E-03  0.285E-03  0.175E-03  0.959E-04  0.457E-04
  0.190E-04  0.118E-04  0.175E-07  0.184E-05  0.747E-04  0.118E-02  0.887E-02
  0.241E-01  0.395E-01  0.422E-01  0.308E-01  0.242E-01  0.201E-01  0.170E-01
  0.137E-01  0.962E-02  0.524E-02  0.210E-02  0.818E-03  0.468E-03  0.313E-03
  0.195E-03  0.105E-03  0.528E-04  0.260E-04  0.127E-04  0.642E-05  0.343E-05
  0.202E-05  0.126E-05  0.820E-06  0.473E-06  0.228E-06  0.141E-06  0.549E-08
  0.597E-06  0.254E-04  0.429E-03  0.337E-02  0.103E-01  0.198E-01  0.236E-01
  0.179E-01  0.141E-01  0.115E-01  0.990E-02  0.818E-02  0.555E-02  0.273E-02
  0.826E-03  0.144E-03  0.295E-04  0.143E-04  0.853E-05  0.450E-05  0.216E-05
  0.963E-06  0.394E-06  0.143E-06  0.470E-07  0.154E-07  0.478E-08  0.253E-08
  0.136E-08  0.740E-09  0.459E-09  0.126E-08  0.136E-06  0.578E-05  0.954E-04
  0.782E-03  0.268E-02  0.599E-02  0.768E-02  0.562E-02  0.401E-02  0.316E-02
  0.265E-02  0.221E-02  0.147E-02  0.714E-03  0.220E-03  0.377E-04  0.362E-05
  0.128E-06  0.427E-07  0.229E-07  0.113E-07  0.520E-08  0.222E-08  0.812E-09
  0.250E-09  0.739E-10  0.174E-10  0.877E-11  0.455E-11  0.241E-11  0.150E-11
  0.565E-09  0.576E-07  0.229E-05  0.338E-04  0.255E-03  0.861E-03  0.169E-02
  0.173E-02  0.885E-03  0.517E-03  0.458E-03  0.326E-03  0.224E-03  0.125E-03
  0.670E-04  0.246E-04  0.482E-05  0.476E-06  0.198E-07  0.538E-09  0.120E-10
  0.145E-11  0.314E-12  0.904E-13  0.258E-13  0.747E-14  0.253E-14  0.729E-15
  0.605E-15  0.819E-15  0.328E-15  0.204E-15  0.742E-09  0.718E-07  0.249E-05
  0.278E-04  0.158E-03  0.436E-03  0.596E-03  0.549E-03  0.414E-03  0.364E-03
  0.328E-03  0.300E-03  0.289E-03  0.244E-03  0.129E-03  0.335E-04  0.376E-05
  0.207E-06  0.683E-08  0.210E-09  0.987E-11  0.608E-12  0.505E-13  0.925E-14
  0.284E-14  0.152E-14  0.915E-15  0.726E-15  0.890E-15  0.545E-15  0.194E-15
  0.120E-15  0.237E-08  0.223E-06  0.746E-05  0.845E-04  0.530E-03  0.171E-02
  0.299E-02  0.316E-02  0.228E-02  0.167E-02  0.129E-02  0.106E-02  0.872E-03
  0.693E-03  0.351E-03  0.803E-04  0.731E-05  0.335E-06  0.965E-08  0.344E-09
  0.158E-09  0.165E-09  0.179E-09  0.195E-09  0.205E-09  0.194E-09  0.162E-09
  0.118E-09  0.675E-10  0.385E-10  0.219E-10  0.136E-10  0.559E-08  0.550E-06
  0.201E-04  0.288E-03  0.234E-02  0.943E-02  0.206E-01  0.239E-01  0.163E-01
  0.986E-02  0.558E-02  0.323E-02  0.200E-02  0.130E-02  0.661E-03  0.164E-03
  0.165E-04  0.139E-05  0.535E-06  0.566E-06  0.581E-06  0.576E-06  0.532E-06
  0.436E-06  0.324E-06  0.217E-06  0.133E-06  0.761E-07  0.427E-07  0.240E-07
  0.136E-07  0.844E-08  0.360E-07  0.230E-05  0.378E-04  0.340E-03  0.252E-02
  0.818E-02  0.156E-01  0.173E-01  0.115E-01  0.724E-02  0.444E-02  0.287E-02
  0.201E-02  0.154E-02  0.106E-02  0.453E-03  0.158E-03  0.938E-04  0.712E-04
  0.571E-04  0.440E-04  0.324E-04  0.232E-04  0.157E-04  0.102E-04  0.634E-05
  0.384E-05  0.229E-05  0.139E-05  0.867E-06  0.548E-06  0.340E-06  0.345E-06
  0.267E-04  0.676E-03  0.864E-02  0.490E-01  0.332E-01  0.169E-01  0.114E-01
  0.868E-02  0.750E-02  0.832E-02  0.112E-01  0.170E-01  0.254E-01  0.320E-01
  0.230E-01  0.103E-01  0.465E-02  0.222E-02  0.135E-02  0.939E-03  0.671E-03
  0.509E-03  0.386E-03  0.303E-03  0.242E-03  0.197E-03  0.161E-03  0.126E-03
  0.936E-04  0.653E-04  0.405E-04  0.124E-05  0.120E-03  0.437E-02  0.804E-01
  0.444E+00  0.392E+00  0.499E+00  0.838E+00  0.905E+00  0.529E+00  0.468E+00
  0.549E+00  0.564E+00  0.501E+00  0.390E+00  0.207E+00  0.914E-01  0.499E-01
  0.313E-01  0.236E-01  0.177E-01  0.139E-01  0.113E-01  0.895E-02  0.704E-02
  0.537E-02  0.391E-02  0.274E-02  0.184E-02  0.119E-02  0.748E-03  0.464E-03
  0.266E-05  0.308E-03  0.161E-01  0.360E+00  0.291E+01  0.622E+01  0.105E+02
  0.192E+02  0.162E+02  0.647E+01  0.310E+01  0.211E+01  0.163E+01  0.121E+01
  0.886E+00  0.569E+00  0.377E+00  0.261E+00  0.184E+00  0.144E+00  0.107E+00
  0.795E-01  0.586E-01  0.415E-01  0.287E-01  0.196E-01  0.131E-01  0.853E-02
  0.546E-02  0.345E-02  0.215E-02  0.133E-02  0.429E-05  0.482E-03  0.222E-01
  0.386E+00  0.361E+01  0.136E+02  0.432E+02  0.680E+02  0.401E+02  0.202E+02
  0.828E+01  0.351E+01  0.229E+01  0.192E+01  0.157E+01  0.115E+01  0.943E+00
  0.720E+00  0.508E+00  0.374E+00  0.266E+00  0.183E+00  0.125E+00  0.845E-01
  0.554E-01  0.361E-01  0.234E-01  0.149E-01  0.946E-02  0.601E-02  0.380E-02
  0.236E-02  0.549E-05  0.560E-03  0.220E-01  0.295E+00  0.232E+01  0.120E+02
  0.562E+02  0.868E+02  0.635E+02  0.413E+02  0.175E+02  0.678E+01  0.390E+01
  0.329E+01  0.303E+01  0.228E+01  0.173E+01  0.127E+01  0.854E+00  0.589E+00
  0.407E+00  0.270E+00  0.176E+00  0.114E+00  0.727E-01  0.463E-01  0.297E-01
  0.190E-01  0.121E-01  0.779E-02  0.501E-02  0.311E-02
20080310 060000
'W006N482  '  48.20  -6.00     127.1  19.65 271.5   0.00 270.0
  0.515E-04  0.401E-02  0.110E+00  0.995E+00  0.582E+01  0.184E+02  0.754E+02
  0.124E+03  0.922E+02  0.471E+02  0.267E+02  0.170E+02  0.107E+02  0.800E+01
  0.553E+01  0.355E+01  0.230E+01  0.150E+01  0.966E+00  0.635E+00  0.419E+00
  0.274E+00  0.180E+00  0.119E+00  0.786E-01  0.521E-01  0.345E-01  0.229E-01
  0.150E-01  0.979E-02  0.637E-02  0.396E-02  0.494E-04  0.420E-02  0.132E+00
  0.140E+01  0.615E+01  0.803E+01  0.135E+02  0.535E+02  0.836E+02  0.387E+02
  0.243E+02  0.180E+02  0.114E+02  0.776E+01  0.550E+01  0.346E+01  0.218E+01
  0.143E+01  0.938E+00  0.617E+00  0.411E+00  0.272E+00  0.180E+00  0.120E+00
  0.797E-01  0.527E-01  0.348E-01  0.229E-01  0.149E-01  0.966E-02  0.625E-02
  0.388E-02  0.298E-04  0.221E-02  0.625E-01  0.778E+00  0.338E+01  0.443E+01
  0.421E+01  0.943E+01  0.395E+02  0.395E+02  0.205E+02  0.151E+02  0.112E+02
  0.729E+01  0.508E+01  0.332E+01  0.207E+01  0.134E+01  0.891E+00  0.590E+00
  0.392E+00  0.261E+00  0.172E+00  0.114E+00  0.755E-01  0.498E-01  0.326E-01
  0.214E-01  0.138E-01  0.890E-02  0.572E-02  0.355E-02  0.198E-04  0.126E-02
  0.263E-01  0.239E+00  0.902E+00  0.213E+01  0.276E+01  0.356E+01  0.120E+02
  0.315E+02  0.205E+02  0.117E+02  0.962E+01  0.659E+01  0.423E+01  0.287E+01
  0.187E+01  0.120E+01  0.792E+00  0.524E+00  0.344E+00  0.227E+00  0.149E+00
  0.981E-01  0.645E-01  0.423E-01  0.277E-01  0.180E-01  0.117E-01  0.751E-02
  0.482E-02  0.299E-02  0.746E-05  0.362E-03  0.509E-02  0.235E-01  0.570E-01
  0.537E+00  0.216E+01  0.361E+01  0.636E+01  0.151E+02  0.237E+02  0.103E+02
  0.705E+01  0.544E+01  0.352E+01  0.228E+01  0.151E+01  0.967E+00  0.630E+00
  0.415E+00  0.268E+00  0.173E+00  0.112E+00  0.729E-01  0.474E-01  0.309E-01
  0.201E-01  0.131E-01  0.848E-02  0.548E-02  0.352E-02  0.219E-02  0.576E-06
  0.173E-04  0.185E-03  0.225E-02  0.191E-01  0.111E+00  0.877E+00  0.316E+01
  0.410E+01  0.559E+01  0.116E+02  0.106E+02  0.498E+01  0.368E+01  0.275E+01
  0.179E+01  0.119E+01  0.786E+00  0.503E+00  0.322E+00  0.204E+00  0.127E+00
  0.795E-01  0.497E-01  0.312E-01  0.197E-01  0.125E-01  0.800E-02  0.509E-02
  0.326E-02  0.208E-02  0.129E-02  0.597E-08  0.129E-05  0.721E-04  0.110E-02
  0.799E-02  0.313E-01  0.188E+00  0.107E+01  0.175E+01  0.179E+01  0.297E+01
  0.440E+01  0.354E+01  0.202E+01  0.168E+01  0.120E+01  0.806E+00  0.557E+00
  0.365E+00  0.230E+00  0.143E+00  0.873E-01  0.521E-01  0.309E-01  0.183E-01
  0.108E-01  0.640E-02  0.384E-02  0.231E-02  0.141E-02  0.869E-03  0.540E-03
  0.577E-08  0.647E-06  0.261E-04  0.464E-03  0.367E-02  0.161E-01  0.566E-01
  0.205E+00  0.415E+00  0.469E+00  0.590E+00  0.862E+00  0.120E+01  0.942E+00
  0.718E+00  0.601E+00  0.419E+00  0.286E+00  0.193E+00  0.123E+00  0.760E-01
  0.451E-01  0.258E-01  0.143E-01  0.773E-02  0.408E-02  0.214E-02  0.112E-02
  0.588E-03  0.316E-03  0.173E-03  0.108E-03  0.371E-08  0.371E-06  0.155E-04
  0.297E-03  0.254E-02  0.122E-01  0.450E-01  0.941E-01  0.987E-01  0.991E-01
  0.108E+00  0.133E+00  0.192E+00  0.217E+00  0.181E+00  0.151E+00  0.123E+00
  0.852E-01  0.552E-01  0.348E-01  0.211E-01  0.122E-01  0.678E-02  0.352E-02
  0.171E-02  0.786E-03  0.343E-03  0.144E-03  0.591E-04  0.244E-04  0.102E-04
  0.635E-05  0.775E-08  0.694E-06  0.241E-04  0.327E-03  0.216E-02  0.575E-02
  0.146E-01  0.297E-01  0.292E-01  0.269E-01  0.227E-01  0.233E-01  0.283E-01
  0.290E-01  0.255E-01  0.189E-01  0.133E-01  0.896E-02  0.525E-02  0.302E-02
  0.169E-02  0.906E-03  0.475E-03  0.234E-03  0.105E-03  0.429E-04  0.157E-04
  0.512E-05  0.156E-05  0.456E-06  0.138E-06  0.857E-07  0.191E-07  0.183E-05
  0.680E-04  0.970E-03  0.627E-02  0.141E-01  0.296E-01  0.438E-01  0.420E-01
  0.395E-01  0.318E-01  0.240E-01  0.160E-01  0.850E-02  0.387E-02  0.184E-02
  0.924E-03  0.457E-03  0.188E-03  0.666E-04  0.243E-04  0.914E-05  0.352E-05
  0.136E-05  0.513E-06  0.183E-06  0.592E-07  0.171E-07  0.509E-08  0.174E-08
  0.757E-09  0.470E-09  0.199E-07  0.198E-05  0.780E-04  0.123E-02  0.901E-02
  0.228E-01  0.492E-01  0.671E-01  0.638E-01  0.607E-01  0.501E-01  0.381E-01
  0.249E-01  0.112E-01  0.337E-02  0.746E-03  0.125E-03  0.236E-04  0.626E-05
  0.152E-05  0.330E-06  0.687E-07  0.138E-07  0.268E-08  0.507E-09  0.992E-10
  0.220E-10  0.520E-11  0.256E-11  0.132E-11  0.693E-12  0.430E-12  0.671E-08
  0.684E-06  0.279E-04  0.455E-03  0.349E-02  0.989E-02  0.251E-01  0.377E-01
  0.370E-01  0.351E-01  0.292E-01  0.226E-01  0.149E-01  0.663E-02  0.191E-02
  0.396E-03  0.517E-04  0.428E-05  0.160E-06  0.199E-07  0.230E-08  0.269E-09
  0.293E-10  0.273E-11  0.215E-12  0.151E-13  0.120E-14  0.499E-15  0.160E-15
  0.929E-15  0.429E-15  0.267E-15  0.157E-08  0.158E-06  0.645E-05  0.105E-03
  0.824E-03  0.261E-02  0.756E-02  0.115E-01  0.102E-01  0.885E-02  0.682E-02
  0.485E-02  0.296E-02  0.137E-02  0.457E-03  0.109E-03  0.157E-04  0.524E-06
  0.115E-07  0.495E-09  0.972E-11  0.568E-12  0.488E-13  0.595E-14  0.452E-15
  0.256E-15  0.145E-15  0.247E-15  0.232E-15  0.850E-15  0.458E-15  0.285E-15
  0.619E-09  0.606E-07  0.235E-05  0.347E-04  0.254E-03  0.806E-03  0.201E-02
  0.232E-02  0.115E-02  0.767E-03  0.365E-03  0.908E-04  0.796E-04  0.927E-04
  0.499E-04  0.154E-04  0.196E-05  0.153E-06  0.859E-08  0.176E-09  0.197E-10
  0.129E-10  0.136E-10  0.152E-10  0.177E-10  0.201E-10  0.220E-10  0.201E-10
  0.117E-10  0.672E-11  0.386E-11  0.240E-11  0.683E-09  0.648E-07  0.227E-05
  0.278E-04  0.160E-03  0.421E-03  0.709E-03  0.689E-03  0.495E-03  0.430E-03
  0.369E-03  0.301E-03  0.235E-03  0.135E-03  0.407E-04  0.652E-05  0.599E-06
  0.639E-07  0.300E-07  0.398E-07  0.636E-07  0.979E-07  0.128E-06  0.137E-06
  0.122E-06  0.928E-07  0.636E-07  0.390E-07  0.220E-07  0.124E-07  0.701E-08
  0.435E-08  0.209E-08  0.187E-06  0.624E-05  0.794E-04  0.500E-03  0.148E-02
  0.305E-02  0.373E-02  0.328E-02  0.322E-02  0.312E-02  0.243E-02  0.153E-02
  0.633E-03  0.141E-03  0.183E-04  0.793E-05  0.114E-04  0.160E-04  0.189E-04
  0.188E-04  0.163E-04  0.127E-04  0.914E-05  0.617E-05  0.386E-05  0.232E-05
  0.135E-05  0.786E-06  0.466E-06  0.279E-06  0.173E-06  0.376E-08  0.397E-06
  0.177E-04  0.265E-03  0.208E-02  0.723E-02  0.192E-01  0.265E-01  0.215E-01
  0.187E-01  0.164E-01  0.119E-01  0.700E-02  0.260E-02  0.703E-03  0.421E-03
  0.468E-03  0.513E-03  0.486E-03  0.409E-03  0.330E-03  0.256E-03  0.193E-03
  0.147E-03  0.113E-03  0.868E-04  0.708E-04  0.602E-04  0.513E-04  0.421E-04
  0.321E-04  0.199E-04  0.400E-06  0.167E-04  0.145E-03  0.515E-03  0.260E-02
  0.662E-02  0.146E-01  0.191E-01  0.151E-01  0.135E-01  0.132E-01  0.115E-01
  0.919E-02  0.702E-02  0.639E-02  0.687E-02  0.705E-02  0.688E-02  0.635E-02
  0.545E-02  0.483E-02  0.431E-02  0.396E-02  0.379E-02  0.354E-02  0.308E-02
  0.248E-02  0.186E-02  0.132E-02  0.890E-03  0.572E-03  0.355E-03  0.433E-05
  0.297E-03  0.695E-02  0.393E-01  0.892E-01  0.417E-01  0.161E-01  0.101E-01
  0.110E-01  0.168E-01  0.290E-01  0.440E-01  0.698E-01  0.947E-01  0.987E-01
  0.948E-01  0.894E-01  0.816E-01  0.742E-01  0.655E-01  0.597E-01  0.516E-01
  0.416E-01  0.317E-01  0.230E-01  0.161E-01  0.110E-01  0.730E-02  0.470E-02
  0.299E-02  0.186E-02  0.115E-02  0.145E-04  0.142E-02  0.470E-01  0.411E+00
  0.112E+01  0.103E+01  0.107E+01  0.911E+00  0.731E+00  0.455E+00  0.675E+00
  0.901E+00  0.970E+00  0.102E+01  0.886E+00  0.677E+00  0.533E+00  0.452E+00
  0.373E+00  0.290E+00  0.218E+00  0.156E+00  0.108E+00  0.743E-01  0.500E-01
  0.330E-01  0.214E-01  0.138E-01  0.867E-02  0.548E-02  0.345E-02  0.214E-02
  0.114E-04  0.177E-02  0.862E-01  0.138E+01  0.712E+01  0.164E+02  0.226E+02
  0.261E+02  0.169E+02  0.602E+01  0.388E+01  0.369E+01  0.315E+01  0.278E+01
  0.245E+01  0.203E+01  0.149E+01  0.110E+01  0.788E+00  0.544E+00  0.372E+00
  0.250E+00  0.164E+00  0.106E+00  0.683E-01  0.436E-01  0.278E-01  0.178E-01
  0.113E-01  0.722E-02  0.464E-02  0.288E-02  0.140E-04  0.144E-02  0.655E-01
  0.138E+01  0.112E+02  0.491E+02  0.893E+02  0.931E+02  0.488E+02  0.201E+02
  0.937E+01  0.690E+01  0.656E+01  0.563E+01  0.414E+01  0.314E+01  0.217E+01
  0.146E+01  0.100E+01  0.672E+00  0.436E+00  0.281E+00  0.179E+00  0.114E+00
  0.730E-01  0.471E-01  0.305E-01  0.198E-01  0.129E-01  0.837E-02  0.545E-02
  0.338E-02  0.239E-04  0.171E-02  0.547E-01  0.759E+00  0.638E+01  0.451E+02
  0.122E+03  0.127E+03  0.827E+02  0.498E+02  0.221E+02  0.116E+02  0.912E+01
  0.741E+01  0.512E+01  0.354E+01  0.239E+01  0.155E+01  0.101E+01  0.667E+00
  0.429E+00  0.275E+00  0.178E+00  0.116E+00  0.757E-01  0.497E-01  0.327E-01
  0.216E-01  0.142E-01  0.928E-02  0.607E-02  0.377E-02
20080310 090000
'W006N482  '  48.20  -6.00     127.1  21.62 273.6   0.00 270.0
  0.131E-02  0.469E-01  0.618E+00  0.409E+01  0.195E+02  0.620E+02  0.170E+03
  0.155E+03  0.779E+02  0.448E+02  0.301E+02  0.196E+02  0.136E+02  0.892E+01
  0.552E+01  0.351E+01  0.230E+01  0.150E+01  0.100E+01  0.666E+00  0.442E+00
  0.295E+00  0.197E+00  0.132E+00  0.880E-01  0.585E-01  0.387E-01  0.255E-01
  0.166E-01  0.108E-01  0.698E-02  0.433E-02  0.114E-02  0.516E-01  0.921E+00
  0.710E+01  0.205E+02  0.240E+02  0.418E+02  0.889E+02  0.612E+02  0.324E+02
  0.243E+02  0.177E+02  0.119E+02  0.839E+01  0.547E+01  0.347E+01  0.230E+01
  0.153E+01  0.101E+01  0.676E+00  0.449E+00  0.297E+00  0.197E+00  0.131E+00
  0.862E-01  0.568E-01  0.373E-01  0.244E-01  0.159E-01  0.103E-01  0.662E-02
  0.411E-02  0.644E-03  0.282E-01  0.500E+00  0.413E+01  0.118E+02  0.972E+01
  0.890E+01  0.172E+02  0.391E+02  0.241E+02  0.174E+02  0.145E+02  0.106E+02
  0.715E+01  0.499E+01  0.327E+01  0.218E+01  0.147E+01  0.983E+00  0.651E+00
  0.430E+00  0.282E+00  0.184E+00  0.121E+00  0.791E-01  0.516E-01  0.337E-01
  0.219E-01  0.142E-01  0.918E-02  0.592E-02  0.368E-02  0.429E-03  0.163E-01
  0.213E+00  0.131E+01  0.355E+01  0.406E+01  0.350E+01  0.451E+01  0.139E+02
  0.234E+02  0.131E+02  0.995E+01  0.807E+01  0.553E+01  0.382E+01  0.266E+01
  0.180E+01  0.123E+01  0.829E+00  0.548E+00  0.361E+00  0.237E+00  0.155E+00
  0.101E+00  0.658E-01  0.427E-01  0.278E-01  0.181E-01  0.117E-01  0.754E-02
  0.486E-02  0.302E-02  0.148E-03  0.468E-02  0.413E-01  0.137E+00  0.283E+00
  0.907E+00  0.200E+01  0.340E+01  0.594E+01  0.141E+02  0.167E+02  0.810E+01
  0.596E+01  0.408E+01  0.266E+01  0.182E+01  0.124E+01  0.835E+00  0.565E+00
  0.377E+00  0.248E+00  0.163E+00  0.107E+00  0.699E-01  0.457E-01  0.297E-01
  0.193E-01  0.125E-01  0.807E-02  0.520E-02  0.334E-02  0.207E-02  0.859E-05
  0.166E-03  0.517E-03  0.144E-02  0.200E-01  0.120E+00  0.762E+00  0.226E+01
  0.292E+01  0.459E+01  0.958E+01  0.716E+01  0.385E+01  0.288E+01  0.190E+01
  0.124E+01  0.833E+00  0.546E+00  0.356E+00  0.231E+00  0.149E+00  0.959E-01
  0.617E-01  0.396E-01  0.254E-01  0.163E-01  0.105E-01  0.670E-02  0.425E-02
  0.271E-02  0.172E-02  0.107E-02  0.169E-07  0.107E-05  0.784E-04  0.139E-02
  0.946E-02  0.301E-01  0.153E+00  0.686E+00  0.954E+00  0.122E+01  0.218E+01
  0.298E+01  0.192E+01  0.122E+01  0.101E+01  0.675E+00  0.448E+00  0.291E+00
  0.181E+00  0.111E+00  0.680E-01  0.415E-01  0.253E-01  0.155E-01  0.947E-02
  0.579E-02  0.356E-02  0.219E-02  0.134E-02  0.825E-03  0.505E-03  0.314E-03
  0.818E-08  0.896E-06  0.344E-04  0.564E-03  0.432E-02  0.142E-01  0.498E-01
  0.159E+00  0.236E+00  0.288E+00  0.397E+00  0.549E+00  0.578E+00  0.371E+00
  0.292E+00  0.228E+00  0.147E+00  0.895E-01  0.520E-01  0.294E-01  0.162E-01
  0.877E-02  0.471E-02  0.254E-02  0.138E-02  0.760E-03  0.422E-03  0.236E-03
  0.132E-03  0.747E-04  0.424E-04  0.263E-04  0.685E-08  0.594E-06  0.215E-04
  0.382E-03  0.339E-02  0.131E-01  0.458E-01  0.905E-01  0.863E-01  0.727E-01
  0.708E-01  0.791E-01  0.830E-01  0.673E-01  0.469E-01  0.338E-01  0.218E-01
  0.115E-01  0.569E-02  0.271E-02  0.124E-02  0.553E-03  0.242E-03  0.103E-03
  0.443E-04  0.194E-04  0.888E-05  0.419E-05  0.201E-05  0.996E-06  0.501E-06
  0.311E-06  0.395E-07  0.260E-05  0.658E-04  0.716E-03  0.366E-02  0.104E-01
  0.230E-01  0.377E-01  0.360E-01  0.291E-01  0.204E-01  0.155E-01  0.115E-01
  0.763E-02  0.483E-02  0.270E-02  0.123E-02  0.440E-03  0.144E-03  0.517E-04
  0.181E-04  0.619E-05  0.219E-05  0.836E-06  0.354E-06  0.163E-06  0.806E-07
  0.413E-07  0.223E-07  0.122E-07  0.676E-08  0.419E-08  0.129E-06  0.887E-05
  0.233E-03  0.253E-02  0.119E-01  0.301E-01  0.659E-01  0.823E-01  0.760E-01
  0.568E-01  0.382E-01  0.239E-01  0.112E-01  0.376E-02  0.110E-02  0.298E-03
  0.658E-04  0.117E-04  0.157E-05  0.241E-06  0.550E-07  0.164E-07  0.576E-08
  0.223E-08  0.913E-09  0.385E-09  0.172E-09  0.780E-10  0.428E-10  0.236E-10
  0.131E-10  0.814E-11  0.160E-06  0.115E-04  0.313E-03  0.354E-02  0.182E-01
  0.492E-01  0.111E+00  0.137E+00  0.127E+00  0.973E-01  0.688E-01  0.448E-01
  0.207E-01  0.659E-02  0.171E-02  0.349E-03  0.401E-04  0.992E-06  0.285E-07
  0.108E-08  0.468E-10  0.353E-11  0.539E-12  0.111E-12  0.307E-13  0.960E-14
  0.304E-14  0.101E-14  0.539E-15  0.301E-15  0.166E-15  0.103E-15  0.608E-07
  0.442E-05  0.123E-03  0.142E-02  0.759E-02  0.232E-01  0.567E-01  0.735E-01
  0.707E-01  0.553E-01  0.394E-01  0.258E-01  0.119E-01  0.387E-02  0.100E-02
  0.208E-03  0.291E-04  0.193E-05  0.960E-08  0.558E-09  0.292E-10  0.160E-11
  0.968E-13  0.658E-14  0.151E-16  0.313E-17  0.103E-17  0.269E-15  0.655E-16
  0.872E-15  0.296E-15  0.184E-15  0.152E-07  0.108E-05  0.303E-04  0.348E-03
  0.184E-02  0.604E-02  0.153E-01  0.196E-01  0.162E-01  0.112E-01  0.721E-02
  0.443E-02  0.215E-02  0.836E-03  0.282E-03  0.738E-04  0.992E-05  0.207E-06
  0.674E-08  0.212E-09  0.829E-11  0.238E-11  0.134E-11  0.126E-11  0.115E-11
  0.884E-12  0.600E-12  0.323E-12  0.192E-12  0.112E-12  0.647E-13  0.401E-13
  0.426E-08  0.298E-06  0.826E-05  0.937E-04  0.475E-03  0.143E-02  0.327E-02
  0.316E-02  0.105E-02  0.527E-03  0.283E-03  0.183E-03  0.150E-03  0.971E-04
  0.489E-04  0.153E-04  0.188E-05  0.145E-06  0.279E-07  0.360E-07  0.516E-07
  0.596E-07  0.523E-07  0.367E-07  0.215E-07  0.108E-07  0.506E-08  0.212E-08
  0.117E-08  0.649E-09  0.362E-09  0.225E-09  0.155E-08  0.107E-06  0.314E-05
  0.368E-04  0.200E-03  0.489E-03  0.996E-03  0.150E-02  0.167E-02  0.195E-02
  0.201E-02  0.160E-02  0.721E-03  0.170E-03  0.292E-04  0.110E-04  0.136E-04
  0.172E-04  0.186E-04  0.165E-04  0.125E-04  0.839E-05  0.507E-05  0.281E-05
  0.147E-05  0.722E-06  0.353E-06  0.170E-06  0.957E-07  0.541E-07  0.306E-07
  0.190E-07  0.508E-08  0.331E-06  0.914E-05  0.119E-03  0.688E-03  0.177E-02
  0.478E-02  0.894E-02  0.138E-01  0.209E-01  0.221E-01  0.158E-01  0.692E-02
  0.183E-02  0.633E-03  0.583E-03  0.616E-03  0.546E-03  0.426E-03  0.308E-03
  0.210E-03  0.138E-03  0.907E-04  0.605E-04  0.422E-04  0.315E-04  0.256E-04
  0.205E-04  0.152E-04  0.998E-05  0.577E-05  0.358E-05  0.259E-07  0.105E-05
  0.470E-04  0.631E-03  0.366E-02  0.973E-02  0.299E-01  0.562E-01  0.724E-01
  0.975E-01  0.961E-01  0.657E-01  0.308E-01  0.124E-01  0.834E-02  0.817E-02
  0.805E-02  0.704E-02  0.583E-02  0.489E-02  0.413E-02  0.372E-02  0.347E-02
  0.313E-02  0.263E-02  0.201E-02  0.142E-02  0.926E-03  0.559E-03  0.318E-03
  0.171E-03  0.106E-03  0.455E-05  0.105E-03  0.606E-03  0.199E-02  0.529E-02
  0.996E-02  0.233E-01  0.411E-01  0.527E-01  0.716E-01  0.831E-01  0.820E-01
  0.703E-01  0.691E-01  0.780E-01  0.842E-01  0.862E-01  0.819E-01  0.785E-01
  0.724E-01  0.613E-01  0.487E-01  0.363E-01  0.258E-01  0.175E-01  0.114E-01
  0.717E-02  0.437E-02  0.258E-02  0.151E-02  0.879E-03  0.546E-03  0.705E-04
  0.295E-02  0.314E-01  0.117E+00  0.132E+00  0.727E-01  0.374E-01  0.546E-01
  0.101E+00  0.163E+00  0.264E+00  0.382E+00  0.484E+00  0.586E+00  0.636E+00
  0.633E+00  0.573E+00  0.465E+00  0.363E+00  0.271E+00  0.193E+00  0.133E+00
  0.899E-01  0.589E-01  0.376E-01  0.236E-01  0.147E-01  0.909E-02  0.559E-02
  0.348E-02  0.217E-02  0.135E-02  0.305E-03  0.162E-01  0.260E+00  0.127E+01
  0.209E+01  0.228E+01  0.237E+01  0.156E+01  0.144E+01  0.158E+01  0.248E+01
  0.286E+01  0.298E+01  0.297E+01  0.243E+01  0.185E+01  0.142E+01  0.104E+01
  0.733E+00  0.506E+00  0.338E+00  0.220E+00  0.141E+00  0.899E-01  0.568E-01
  0.359E-01  0.228E-01  0.146E-01  0.930E-02  0.598E-02  0.386E-02  0.240E-02
  0.314E-03  0.236E-01  0.620E+00  0.478E+01  0.175E+02  0.329E+02  0.429E+02
  0.328E+02  0.181E+02  0.971E+01  0.904E+01  0.849E+01  0.716E+01  0.606E+01
  0.465E+01  0.321E+01  0.223E+01  0.152E+01  0.101E+01  0.654E+00  0.419E+00
  0.265E+00  0.168E+00  0.107E+00  0.691E-01  0.447E-01  0.291E-01  0.190E-01
  0.124E-01  0.811E-02  0.529E-02  0.329E-02  0.836E-03  0.246E-01  0.511E+00
  0.597E+01  0.381E+02  0.943E+02  0.135E+03  0.103E+03  0.566E+02  0.263E+02
  0.174E+02  0.148E+02  0.119E+02  0.826E+01  0.566E+01  0.376E+01  0.245E+01
  0.161E+01  0.104E+01  0.665E+00  0.428E+00  0.277E+00  0.180E+00  0.118E+00
  0.777E-01  0.513E-01  0.340E-01  0.225E-01  0.148E-01  0.968E-02  0.631E-02
  0.392E-02  0.131E-02  0.287E-01  0.381E+00  0.338E+01  0.272E+02  0.115E+03
  0.206E+03  0.147E+03  0.945E+02  0.543E+02  0.275E+02  0.182E+02  0.137E+02
  0.901E+01  0.578E+01  0.373E+01  0.235E+01  0.152E+01  0.100E+01  0.658E+00
  0.432E+00  0.286E+00  0.190E+00  0.126E+00  0.845E-01  0.564E-01  0.375E-01
  0.248E-01  0.163E-01  0.106E-01  0.689E-02  0.428E-02
20080310 120000
'W006N482  '  48.20  -6.00     127.1  23.42 275.7   0.00 270.0
  0.647E-01  0.889E+00  0.713E+01  0.306E+02  0.798E+02  0.175E+03  0.236E+03
  0.137E+03  0.753E+02  0.478E+02  0.323E+02  0.216E+02  0.144E+02  0.886E+01
  0.560E+01  0.364E+01  0.240E+01  0.160E+01  0.107E+01  0.716E+00  0.480E+00
  0.322E+00  0.215E+00  0.144E+00  0.957E-01  0.633E-01  0.417E-01  0.274E-01
  0.178E-01  0.115E-01  0.741E-02  0.460E-02  0.434E-01  0.737E+00  0.692E+01
  0.328E+02  0.545E+02  0.591E+02  0.748E+02  0.968E+02  0.516E+02  0.343E+02
  0.270E+02  0.193E+02  0.133E+02  0.903E+01  0.580E+01  0.380E+01  0.253E+01
  0.167E+01  0.111E+01  0.729E+00  0.479E+00  0.316E+00  0.208E+00  0.137E+00
  0.906E-01  0.595E-01  0.391E-01  0.256E-01  0.167E-01  0.108E-01  0.698E-02
  0.434E-02  0.215E-01  0.353E+00  0.325E+01  0.171E+02  0.244E+02  0.167E+02
  0.142E+02  0.259E+02  0.350E+02  0.226E+02  0.195E+02  0.157E+02  0.115E+02
  0.795E+01  0.546E+01  0.363E+01  0.246E+01  0.163E+01  0.107E+01  0.695E+00
  0.451E+00  0.292E+00  0.190E+00  0.123E+00  0.805E-01  0.526E-01  0.344E-01
  0.225E-01  0.147E-01  0.953E-02  0.618E-02  0.383E-02  0.134E-01  0.196E+00
  0.137E+01  0.568E+01  0.689E+01  0.429E+01  0.381E+01  0.571E+01  0.152E+02
  0.185E+02  0.125E+02  0.101E+02  0.792E+01  0.567E+01  0.406E+01  0.284E+01
  0.195E+01  0.133E+01  0.882E+00  0.577E+00  0.375E+00  0.243E+00  0.157E+00
  0.101E+00  0.655E-01  0.425E-01  0.276E-01  0.180E-01  0.117E-01  0.759E-02
  0.492E-02  0.305E-02  0.444E-02  0.541E-01  0.258E+00  0.614E+00  0.505E+00
  0.741E+00  0.121E+01  0.249E+01  0.514E+01  0.118E+02  0.126E+02  0.713E+01
  0.532E+01  0.357E+01  0.244E+01  0.174E+01  0.122E+01  0.841E+00  0.571E+00
  0.380E+00  0.250E+00  0.164E+00  0.106E+00  0.687E-01  0.443E-01  0.285E-01
  0.184E-01  0.119E-01  0.762E-02  0.491E-02  0.316E-02  0.196E-02  0.221E-03
  0.160E-02  0.154E-02  0.159E-02  0.204E-01  0.116E+00  0.456E+00  0.122E+01
  0.199E+01  0.351E+01  0.700E+01  0.492E+01  0.301E+01  0.223E+01  0.147E+01
  0.984E+00  0.664E+00  0.449E+00  0.305E+00  0.204E+00  0.135E+00  0.887E-01
  0.575E-01  0.369E-01  0.235E-01  0.148E-01  0.934E-02  0.588E-02  0.367E-02
  0.231E-02  0.146E-02  0.904E-03  0.236E-06  0.282E-05  0.532E-04  0.150E-02
  0.109E-01  0.295E-01  0.114E+00  0.429E+00  0.682E+00  0.927E+00  0.149E+01
  0.170E+01  0.101E+01  0.717E+00  0.574E+00  0.392E+00  0.257E+00  0.164E+00
  0.104E+00  0.667E-01  0.436E-01  0.284E-01  0.183E-01  0.116E-01  0.726E-02
  0.446E-02  0.271E-02  0.164E-02  0.972E-03  0.580E-03  0.345E-03  0.214E-03
  0.464E-07  0.198E-05  0.471E-04  0.674E-03  0.525E-02  0.155E-01  0.429E-01
  0.127E+00  0.219E+00  0.281E+00  0.305E+00  0.297E+00  0.223E+00  0.126E+00
  0.951E-01  0.674E-01  0.413E-01  0.245E-01  0.141E-01  0.797E-02  0.459E-02
  0.271E-02  0.164E-02  0.101E-02  0.612E-03  0.365E-03  0.214E-03  0.123E-03
  0.682E-04  0.375E-04  0.203E-04  0.126E-04  0.114E-06  0.349E-05  0.542E-04
  0.558E-03  0.475E-02  0.168E-01  0.451E-01  0.861E-01  0.839E-01  0.813E-01
  0.693E-01  0.473E-01  0.290E-01  0.161E-01  0.882E-02  0.477E-02  0.221E-02
  0.981E-03  0.468E-03  0.225E-03  0.109E-03  0.539E-04  0.271E-04  0.141E-04
  0.756E-05  0.409E-05  0.224E-05  0.122E-05  0.647E-06  0.341E-06  0.178E-06
  0.110E-06  0.105E-05  0.342E-04  0.486E-03  0.297E-02  0.108E-01  0.252E-01
  0.394E-01  0.424E-01  0.362E-01  0.291E-01  0.204E-01  0.114E-01  0.465E-02
  0.173E-02  0.700E-03  0.244E-03  0.637E-04  0.173E-04  0.685E-05  0.328E-05
  0.166E-05  0.846E-06  0.426E-06  0.214E-06  0.108E-06  0.533E-07  0.267E-07
  0.134E-07  0.739E-08  0.410E-08  0.229E-08  0.142E-08  0.381E-05  0.121E-03
  0.176E-02  0.115E-01  0.414E-01  0.877E-01  0.124E+00  0.109E+00  0.831E-01
  0.576E-01  0.374E-01  0.177E-01  0.581E-02  0.150E-02  0.339E-03  0.521E-04
  0.322E-05  0.165E-06  0.241E-07  0.898E-08  0.396E-08  0.178E-08  0.794E-09
  0.349E-09  0.149E-09  0.618E-10  0.262E-10  0.109E-10  0.599E-11  0.332E-11
  0.185E-11  0.115E-11  0.505E-05  0.158E-03  0.232E-02  0.161E-01  0.643E-01
  0.146E+00  0.215E+00  0.190E+00  0.145E+00  0.101E+00  0.675E-01  0.324E-01
  0.107E-01  0.292E-02  0.685E-03  0.111E-03  0.639E-05  0.592E-07  0.151E-09
  0.150E-10  0.219E-12  0.347E-13  0.958E-14  0.162E-14  0.295E-14  0.105E-14
  0.262E-15  0.662E-16  0.308E-16  0.225E-16  0.113E-16  0.701E-17  0.206E-05
  0.619E-04  0.896E-03  0.648E-02  0.272E-01  0.676E-01  0.108E+00  0.101E+00
  0.788E-01  0.561E-01  0.385E-01  0.185E-01  0.626E-02  0.176E-02  0.445E-03
  0.788E-04  0.760E-05  0.194E-06  0.241E-08  0.106E-09  0.752E-11  0.412E-12
  0.325E-13  0.324E-15  0.146E-16  0.565E-17  0.103E-15  0.182E-15  0.418E-16
  0.729E-15  0.210E-15  0.131E-15  0.619E-06  0.161E-04  0.223E-03  0.163E-02
  0.663E-02  0.176E-01  0.280E-01  0.256E-01  0.177E-01  0.114E-01  0.714E-02
  0.351E-02  0.136E-02  0.481E-03  0.148E-03  0.292E-04  0.185E-05  0.479E-07
  0.139E-08  0.915E-10  0.523E-10  0.513E-10  0.441E-10  0.315E-10  0.149E-10
  0.517E-11  0.164E-11  0.432E-12  0.249E-12  0.144E-12  0.819E-13  0.509E-13
  0.186E-06  0.457E-05  0.613E-04  0.443E-03  0.156E-02  0.406E-02  0.555E-02
  0.399E-02  0.150E-02  0.828E-03  0.656E-03  0.317E-03  0.157E-03  0.746E-04
  0.274E-04  0.615E-05  0.110E-05  0.771E-06  0.843E-06  0.782E-06  0.572E-06
  0.343E-06  0.171E-06  0.745E-07  0.296E-07  0.110E-07  0.417E-08  0.160E-08
  0.887E-09  0.495E-09  0.278E-09  0.172E-09  0.498E-07  0.115E-05  0.163E-04
  0.137E-03  0.553E-03  0.115E-02  0.239E-02  0.380E-02  0.585E-02  0.103E-01
  0.110E-01  0.591E-02  0.166E-02  0.300E-03  0.121E-03  0.131E-03  0.125E-03
  0.988E-04  0.686E-04  0.427E-04  0.243E-04  0.127E-04  0.633E-05  0.311E-05
  0.156E-05  0.791E-06  0.430E-06  0.248E-06  0.147E-06  0.817E-07  0.419E-07
  0.260E-07  0.279E-06  0.635E-05  0.764E-04  0.632E-03  0.281E-02  0.601E-02
  0.132E-01  0.211E-01  0.343E-01  0.528E-01  0.549E-01  0.320E-01  0.114E-01
  0.431E-02  0.302E-02  0.272E-02  0.216E-02  0.153E-02  0.103E-02  0.695E-03
  0.484E-03  0.353E-03  0.288E-03  0.257E-03  0.221E-03  0.171E-03  0.117E-03
  0.688E-04  0.352E-04  0.162E-04  0.689E-05  0.428E-05  0.215E-05  0.541E-04
  0.574E-03  0.416E-02  0.183E-01  0.410E-01  0.854E-01  0.112E+00  0.131E+00
  0.147E+00  0.132E+00  0.854E-01  0.486E-01  0.374E-01  0.354E-01  0.336E-01
  0.290E-01  0.244E-01  0.216E-01  0.205E-01  0.193E-01  0.164E-01  0.127E-01
  0.909E-02  0.602E-02  0.367E-02  0.210E-02  0.113E-02  0.588E-03  0.304E-03
  0.158E-03  0.980E-04  0.124E-03  0.706E-03  0.353E-02  0.986E-02  0.235E-01
  0.419E-01  0.798E-01  0.117E+00  0.153E+00  0.203E+00  0.259E+00  0.274E+00
  0.272E+00  0.307E+00  0.321E+00  0.321E+00  0.308E+00  0.277E+00  0.226E+00
  0.169E+00  0.121E+00  0.835E-01  0.551E-01  0.348E-01  0.212E-01  0.126E-01
  0.737E-02  0.432E-02  0.253E-02  0.151E-02  0.923E-03  0.573E-03  0.283E-02
  0.358E-01  0.176E+00  0.334E+00  0.351E+00  0.219E+00  0.204E+00  0.360E+00
  0.599E+00  0.915E+00  0.132E+01  0.162E+01  0.187E+01  0.198E+01  0.179E+01
  0.146E+01  0.110E+01  0.795E+00  0.561E+00  0.382E+00  0.252E+00  0.162E+00
  0.101E+00  0.626E-01  0.386E-01  0.238E-01  0.149E-01  0.939E-02  0.595E-02
  0.383E-02  0.248E-02  0.154E-02  0.169E-01  0.290E+00  0.198E+01  0.456E+01
  0.528E+01  0.647E+01  0.587E+01  0.432E+01  0.491E+01  0.616E+01  0.717E+01
  0.710E+01  0.666E+01  0.538E+01  0.390E+01  0.280E+01  0.199E+01  0.136E+01
  0.904E+00  0.580E+00  0.365E+00  0.229E+00  0.144E+00  0.910E-01  0.580E-01
  0.373E-01  0.242E-01  0.158E-01  0.103E-01  0.677E-02  0.443E-02  0.275E-02
  0.348E-01  0.765E+00  0.743E+01  0.243E+02  0.436E+02  0.676E+02  0.663E+02
  0.441E+02  0.266E+02  0.206E+02  0.186E+02  0.147E+02  0.112E+02  0.839E+01
  0.576E+01  0.386E+01  0.256E+01  0.164E+01  0.104E+01  0.660E+00  0.419E+00
  0.268E+00  0.173E+00  0.113E+00  0.738E-01  0.486E-01  0.321E-01  0.213E-01
  0.140E-01  0.915E-02  0.596E-02  0.370E-02  0.737E-01  0.974E+00  0.839E+01
  0.453E+02  0.125E+03  0.209E+03  0.197E+03  0.134E+03  0.689E+02  0.378E+02
  0.277E+02  0.210E+02  0.146E+02  0.948E+01  0.605E+01  0.383E+01  0.247E+01
  0.161E+01  0.104E+01  0.678E+00  0.445E+00  0.293E+00  0.194E+00  0.129E+00
  0.861E-01  0.573E-01  0.381E-01  0.252E-01  0.165E-01  0.107E-01  0.692E-02
  0.430E-02  0.711E-01  0.847E+00  0.653E+01  0.305E+02  0.115E+03  0.275E+03
  0.274E+03  0.164E+03  0.102E+03  0.591E+02  0.330E+02  0.225E+02  0.146E+02
  0.897E+01  0.571E+01  0.365E+01  0.236E+01  0.157E+01  0.104E+01  0.693E+00
  0.464E+00  0.312E+00  0.210E+00  0.141E+00  0.943E-01  0.626E-01  0.415E-01
  0.273E-01  0.178E-01  0.115E-01  0.740E-02  0.460E-02
20080310 150000
'W006N482  '  48.20  -6.00     127.1  21.83 280.8   0.00 270.0
  0.325E+00  0.505E+01  0.362E+02  0.980E+02  0.187E+03  0.236E+03  0.198E+03
  0.980E+02  0.599E+02  0.431E+02  0.306E+02  0.207E+02  0.131E+02  0.815E+01
  0.527E+01  0.349E+01  0.233E+01  0.156E+01  0.104E+01  0.689E+00  0.460E+00
  0.306E+00  0.204E+00  0.135E+00  0.895E-01  0.589E-01  0.387E-01  0.254E-01
  0.165E-01  0.107E-01  0.689E-02  0.428E-02  0.323E+00  0.462E+01  0.305E+02
  0.583E+02  0.768E+02  0.690E+02  0.752E+02  0.647E+02  0.402E+02  0.328E+02
  0.248E+02  0.178E+02  0.124E+02  0.835E+01  0.548E+01  0.368E+01  0.243E+01
  0.160E+01  0.105E+01  0.682E+00  0.445E+00  0.291E+00  0.191E+00  0.125E+00
  0.823E-01  0.540E-01  0.355E-01  0.233E-01  0.152E-01  0.988E-02  0.640E-02
  0.398E-02  0.194E+00  0.224E+01  0.143E+02  0.274E+02  0.268E+02  0.162E+02
  0.159E+02  0.266E+02  0.260E+02  0.210E+02  0.181E+02  0.144E+02  0.105E+02
  0.721E+01  0.496E+01  0.337E+01  0.227E+01  0.149E+01  0.966E+00  0.623E+00
  0.400E+00  0.258E+00  0.167E+00  0.108E+00  0.707E-01  0.463E-01  0.304E-01
  0.200E-01  0.131E-01  0.851E-02  0.553E-02  0.343E-02  0.119E+00  0.125E+01
  0.675E+01  0.981E+01  0.591E+01  0.262E+01  0.342E+01  0.618E+01  0.147E+02
  0.160E+02  0.118E+02  0.930E+01  0.679E+01  0.483E+01  0.346E+01  0.242E+01
  0.166E+01  0.112E+01  0.740E+00  0.483E+00  0.313E+00  0.202E+00  0.130E+00
  0.838E-01  0.542E-01  0.351E-01  0.229E-01  0.150E-01  0.976E-02  0.635E-02
  0.413E-02  0.256E-02  0.411E-01  0.338E+00  0.129E+01  0.902E+00  0.199E+00
  0.451E+00  0.812E+00  0.191E+01  0.445E+01  0.940E+01  0.966E+01  0.604E+01
  0.442E+01  0.298E+01  0.207E+01  0.145E+01  0.101E+01  0.693E+00  0.465E+00
  0.307E+00  0.201E+00  0.129E+00  0.827E-01  0.526E-01  0.334E-01  0.211E-01
  0.135E-01  0.865E-02  0.553E-02  0.357E-02  0.230E-02  0.143E-02  0.230E-02
  0.924E-02  0.184E-02  0.193E-02  0.282E-01  0.111E+00  0.371E+00  0.112E+01
  0.180E+01  0.275E+01  0.459E+01  0.319E+01  0.212E+01  0.157E+01  0.107E+01
  0.722E+00  0.486E+00  0.330E+00  0.223E+00  0.150E+00  0.989E-01  0.642E-01
  0.408E-01  0.256E-01  0.158E-01  0.962E-02  0.586E-02  0.358E-02  0.217E-02
  0.134E-02  0.835E-03  0.519E-03  0.248E-05  0.181E-04  0.901E-04  0.184E-02
  0.134E-01  0.319E-01  0.115E+00  0.547E+00  0.873E+00  0.881E+00  0.108E+01
  0.999E+00  0.557E+00  0.401E+00  0.309E+00  0.208E+00  0.134E+00  0.853E-01
  0.540E-01  0.350E-01  0.230E-01  0.150E-01  0.963E-02  0.601E-02  0.363E-02
  0.213E-02  0.123E-02  0.694E-03  0.386E-03  0.216E-03  0.122E-03  0.756E-04
  0.197E-05  0.181E-04  0.945E-04  0.817E-03  0.632E-02  0.172E-01  0.416E-01
  0.157E+00  0.351E+00  0.345E+00  0.271E+00  0.206E+00  0.117E+00  0.555E-01
  0.352E-01  0.212E-01  0.121E-01  0.699E-02  0.392E-02  0.219E-02  0.124E-02
  0.728E-03  0.442E-03  0.271E-03  0.163E-03  0.945E-04  0.525E-04  0.279E-04
  0.141E-04  0.693E-05  0.336E-05  0.208E-05  0.486E-05  0.551E-04  0.341E-03
  0.162E-02  0.725E-02  0.216E-01  0.465E-01  0.860E-01  0.111E+00  0.117E+00
  0.723E-01  0.390E-01  0.184E-01  0.699E-02  0.261E-02  0.988E-03  0.382E-03
  0.171E-03  0.824E-04  0.402E-04  0.196E-04  0.955E-05  0.472E-05  0.238E-05
  0.124E-05  0.646E-06  0.344E-06  0.184E-06  0.980E-07  0.522E-07  0.280E-07
  0.174E-07  0.455E-04  0.568E-03  0.396E-02  0.157E-01  0.334E-01  0.498E-01
  0.509E-01  0.462E-01  0.383E-01  0.332E-01  0.208E-01  0.897E-02  0.297E-02
  0.806E-03  0.189E-03  0.351E-04  0.755E-05  0.291E-05  0.140E-05  0.682E-06
  0.323E-06  0.148E-06  0.656E-07  0.286E-07  0.125E-07  0.534E-08  0.236E-08
  0.106E-08  0.586E-09  0.325E-09  0.181E-09  0.112E-09  0.160E-03  0.208E-02
  0.151E-01  0.614E-01  0.133E+00  0.187E+00  0.167E+00  0.124E+00  0.879E-01
  0.595E-01  0.329E-01  0.115E-01  0.316E-02  0.744E-03  0.123E-03  0.755E-05
  0.239E-06  0.631E-08  0.117E-08  0.444E-09  0.187E-09  0.769E-10  0.295E-10
  0.106E-10  0.362E-11  0.116E-11  0.388E-12  0.127E-12  0.696E-13  0.389E-13
  0.216E-13  0.134E-13  0.208E-03  0.277E-02  0.209E-01  0.888E-01  0.208E+00
  0.313E+00  0.290E+00  0.216E+00  0.152E+00  0.102E+00  0.575E-01  0.199E-01
  0.578E-02  0.150E-02  0.297E-03  0.269E-04  0.522E-06  0.231E-08  0.250E-09
  0.302E-11  0.962E-13  0.934E-14  0.983E-15  0.120E-16  0.213E-14  0.719E-15
  0.119E-15  0.124E-16  0.153E-17  0.688E-17  0.186E-17  0.115E-17  0.829E-04
  0.112E-02  0.857E-02  0.366E-01  0.897E-01  0.145E+00  0.142E+00  0.112E+00
  0.823E-01  0.570E-01  0.327E-01  0.116E-01  0.351E-02  0.993E-03  0.213E-03
  0.282E-04  0.171E-05  0.137E-07  0.855E-09  0.720E-10  0.463E-11  0.859E-13
  0.269E-14  0.881E-15  0.541E-15  0.127E-15  0.220E-15  0.167E-15  0.332E-16
  0.608E-15  0.134E-15  0.833E-16  0.260E-04  0.336E-03  0.250E-02  0.982E-02
  0.239E-01  0.400E-01  0.395E-01  0.299E-01  0.196E-01  0.121E-01  0.639E-02
  0.258E-02  0.931E-03  0.340E-03  0.861E-04  0.904E-05  0.295E-06  0.132E-07
  0.231E-08  0.299E-08  0.303E-08  0.196E-08  0.894E-09  0.311E-09  0.890E-10
  0.224E-10  0.578E-11  0.155E-11  0.892E-12  0.511E-12  0.292E-12  0.181E-12
  0.917E-05  0.110E-03  0.757E-03  0.268E-02  0.604E-02  0.980E-02  0.891E-02
  0.505E-02  0.170E-02  0.110E-02  0.634E-03  0.317E-03  0.156E-03  0.718E-04
  0.230E-04  0.912E-05  0.831E-05  0.775E-05  0.575E-05  0.351E-05  0.182E-05
  0.820E-06  0.335E-06  0.131E-06  0.519E-07  0.210E-07  0.913E-08  0.431E-08
  0.242E-08  0.136E-08  0.768E-09  0.477E-09  0.172E-05  0.227E-04  0.185E-03
  0.877E-03  0.262E-02  0.370E-02  0.492E-02  0.639E-02  0.969E-02  0.130E-01
  0.951E-02  0.403E-02  0.127E-02  0.620E-03  0.550E-03  0.476E-03  0.351E-03
  0.230E-03  0.138E-03  0.759E-04  0.401E-04  0.214E-04  0.117E-04  0.699E-05
  0.484E-05  0.351E-05  0.237E-05  0.137E-05  0.650E-06  0.276E-06  0.114E-06
  0.708E-07  0.101E-04  0.139E-03  0.119E-02  0.515E-02  0.126E-01  0.193E-01
  0.251E-01  0.309E-01  0.470E-01  0.616E-01  0.493E-01  0.256E-01  0.131E-01
  0.956E-02  0.827E-02  0.656E-02  0.471E-02  0.341E-02  0.259E-02  0.208E-02
  0.196E-02  0.196E-02  0.177E-02  0.138E-02  0.937E-03  0.555E-03  0.291E-03
  0.137E-03  0.595E-04  0.255E-04  0.112E-04  0.692E-05  0.104E-03  0.134E-02
  0.106E-01  0.394E-01  0.830E-01  0.132E+00  0.162E+00  0.155E+00  0.155E+00
  0.159E+00  0.142E+00  0.111E+00  0.100E+00  0.100E+00  0.973E-01  0.881E-01
  0.792E-01  0.794E-01  0.782E-01  0.671E-01  0.516E-01  0.366E-01  0.242E-01
  0.150E-01  0.867E-02  0.475E-02  0.253E-02  0.134E-02  0.714E-03  0.397E-03
  0.228E-03  0.142E-03  0.288E-03  0.226E-02  0.161E-01  0.543E-01  0.989E-01
  0.151E+00  0.217E+00  0.278E+00  0.387E+00  0.552E+00  0.678E+00  0.715E+00
  0.801E+00  0.844E+00  0.861E+00  0.806E+00  0.663E+00  0.499E+00  0.356E+00
  0.244E+00  0.162E+00  0.103E+00  0.633E-01  0.378E-01  0.223E-01  0.132E-01
  0.789E-02  0.482E-02  0.298E-02  0.189E-02  0.122E-02  0.758E-03  0.163E-01
  0.191E+00  0.530E+00  0.672E+00  0.552E+00  0.520E+00  0.850E+00  0.147E+01
  0.241E+01  0.333E+01  0.405E+01  0.452E+01  0.445E+01  0.369E+01  0.281E+01
  0.205E+01  0.144E+01  0.990E+00  0.655E+00  0.422E+00  0.265E+00  0.164E+00
  0.101E+00  0.628E-01  0.394E-01  0.251E-01  0.162E-01  0.106E-01  0.690E-02
  0.454E-02  0.299E-02  0.186E-02  0.127E+00  0.197E+01  0.567E+01  0.607E+01
  0.698E+01  0.994E+01  0.110E+02  0.115E+02  0.137E+02  0.148E+02  0.135E+02
  0.116E+02  0.917E+01  0.662E+01  0.466E+01  0.325E+01  0.218E+01  0.142E+01
  0.893E+00  0.557E+00  0.349E+00  0.220E+00  0.140E+00  0.906E-01  0.590E-01
  0.387E-01  0.256E-01  0.170E-01  0.112E-01  0.737E-02  0.482E-02  0.299E-02
  0.270E+00  0.470E+01  0.177E+02  0.345E+02  0.678E+02  0.978E+02  0.894E+02
  0.562E+02  0.376E+02  0.308E+02  0.240E+02  0.178E+02  0.128E+02  0.877E+01
  0.572E+01  0.372E+01  0.237E+01  0.150E+01  0.956E+00  0.614E+00  0.397E+00
  0.259E+00  0.170E+00  0.112E+00  0.745E-01  0.495E-01  0.329E-01  0.218E-01
  0.143E-01  0.933E-02  0.605E-02  0.376E-02  0.312E+00  0.444E+01  0.255E+02
  0.115E+03  0.309E+03  0.321E+03  0.216E+03  0.123E+03  0.697E+02  0.450E+02
  0.331E+02  0.224E+02  0.140E+02  0.866E+01  0.541E+01  0.347E+01  0.228E+01
  0.150E+01  0.980E+00  0.647E+00  0.429E+00  0.287E+00  0.192E+00  0.129E+00
  0.857E-01  0.569E-01  0.376E-01  0.248E-01  0.161E-01  0.104E-01  0.673E-02
  0.418E-02  0.273E+00  0.393E+01  0.274E+02  0.107E+03  0.316E+03  0.380E+03
  0.253E+03  0.159E+03  0.949E+02  0.547E+02  0.331E+02  0.214E+02  0.129E+02
  0.817E+01  0.525E+01  0.339E+01  0.224E+01  0.150E+01  0.100E+01  0.672E+00
  0.453E+00  0.305E+00  0.205E+00  0.137E+00  0.910E-01  0.601E-01  0.396E-01
  0.260E-01  0.168E-01  0.109E-01  0.700E-02  0.435E-02
20080310 180000
'W006N482  '  48.20  -6.00     127.1  20.12 285.8   0.00 270.0
  0.228E+00  0.525E+01  0.377E+02  0.114E+03  0.213E+03  0.200E+03  0.161E+03
  0.735E+02  0.483E+02  0.366E+02  0.272E+02  0.181E+02  0.117E+02  0.748E+01
  0.496E+01  0.334E+01  0.225E+01  0.149E+01  0.989E+00  0.653E+00  0.433E+00
  0.287E+00  0.189E+00  0.125E+00  0.820E-01  0.538E-01  0.353E-01  0.231E-01
  0.150E-01  0.975E-02  0.631E-02  0.392E-02  0.355E+00  0.622E+01  0.314E+02
  0.564E+02  0.692E+02  0.551E+02  0.612E+02  0.442E+02  0.310E+02  0.257E+02
  0.199E+02  0.148E+02  0.106E+02  0.718E+01  0.486E+01  0.330E+01  0.221E+01
  0.146E+01  0.965E+00  0.629E+00  0.410E+00  0.268E+00  0.175E+00  0.114E+00
  0.746E-01  0.488E-01  0.320E-01  0.210E-01  0.137E-01  0.887E-02  0.575E-02
  0.357E-02  0.273E+00  0.364E+01  0.163E+02  0.271E+02  0.221E+02  0.109E+02
  0.129E+02  0.231E+02  0.227E+02  0.176E+02  0.145E+02  0.113E+02  0.827E+01
  0.575E+01  0.406E+01  0.280E+01  0.190E+01  0.126E+01  0.830E+00  0.540E+00
  0.350E+00  0.227E+00  0.148E+00  0.959E-01  0.625E-01  0.408E-01  0.267E-01
  0.175E-01  0.114E-01  0.741E-02  0.481E-02  0.299E-02  0.176E+00  0.225E+01
  0.885E+01  0.980E+01  0.295E+01  0.144E+01  0.243E+01  0.526E+01  0.124E+02
  0.141E+02  0.109E+02  0.836E+01  0.579E+01  0.399E+01  0.280E+01  0.193E+01
  0.132E+01  0.881E+00  0.580E+00  0.380E+00  0.249E+00  0.162E+00  0.105E+00
  0.685E-01  0.445E-01  0.289E-01  0.189E-01  0.123E-01  0.799E-02  0.518E-02
  0.335E-02  0.208E-02  0.667E-01  0.661E+00  0.185E+01  0.632E+00  0.110E+00
  0.323E+00  0.651E+00  0.159E+01  0.350E+01  0.701E+01  0.749E+01  0.497E+01
  0.371E+01  0.254E+01  0.174E+01  0.118E+01  0.806E+00  0.540E+00  0.357E+00
  0.233E+00  0.151E+00  0.968E-01  0.620E-01  0.396E-01  0.252E-01  0.160E-01
  0.102E-01  0.653E-02  0.415E-02  0.265E-02  0.169E-02  0.105E-02  0.516E-02
  0.246E-01  0.145E-01  0.404E-02  0.413E-01  0.127E+00  0.402E+00  0.134E+01
  0.184E+01  0.232E+01  0.346E+01  0.230E+01  0.152E+01  0.114E+01  0.787E+00
  0.533E+00  0.355E+00  0.235E+00  0.154E+00  0.101E+00  0.650E-01  0.411E-01
  0.256E-01  0.158E-01  0.967E-02  0.589E-02  0.359E-02  0.218E-02  0.132E-02
  0.808E-03  0.495E-03  0.307E-03  0.273E-04  0.185E-03  0.418E-03  0.398E-02
  0.202E-01  0.421E-01  0.124E+00  0.545E+00  0.751E+00  0.774E+00  0.101E+01
  0.860E+00  0.406E+00  0.261E+00  0.184E+00  0.117E+00  0.744E-01  0.460E-01
  0.282E-01  0.175E-01  0.109E-01  0.674E-02  0.410E-02  0.244E-02  0.141E-02
  0.805E-03  0.456E-03  0.256E-03  0.142E-03  0.791E-04  0.440E-04  0.273E-04
  0.269E-04  0.193E-03  0.430E-03  0.120E-02  0.765E-02  0.192E-01  0.401E-01
  0.134E+00  0.230E+00  0.237E+00  0.245E+00  0.221E+00  0.112E+00  0.419E-01
  0.208E-01  0.953E-02  0.466E-02  0.243E-02  0.127E-02  0.669E-03  0.355E-03
  0.192E-03  0.106E-03  0.585E-04  0.322E-04  0.172E-04  0.903E-05  0.465E-05
  0.232E-05  0.116E-05  0.576E-06  0.358E-06  0.349E-04  0.342E-03  0.169E-02
  0.403E-02  0.106E-01  0.246E-01  0.484E-01  0.826E-01  0.890E-01  0.777E-01
  0.577E-01  0.430E-01  0.238E-01  0.733E-02  0.183E-02  0.445E-03  0.127E-03
  0.487E-04  0.214E-04  0.999E-05  0.475E-05  0.229E-05  0.113E-05  0.568E-06
  0.293E-06  0.150E-06  0.784E-07  0.413E-07  0.226E-07  0.125E-07  0.693E-08
  0.430E-08  0.292E-03  0.346E-02  0.190E-01  0.446E-01  0.681E-01  0.648E-01
  0.550E-01  0.489E-01  0.380E-01  0.288E-01  0.172E-01  0.868E-02  0.362E-02
  0.105E-02  0.169E-03  0.148E-04  0.171E-05  0.485E-06  0.199E-06  0.865E-07
  0.370E-07  0.156E-07  0.646E-08  0.269E-08  0.113E-08  0.474E-09  0.206E-09
  0.901E-10  0.495E-10  0.274E-10  0.152E-10  0.945E-11  0.888E-03  0.116E-01
  0.679E-01  0.173E+00  0.274E+00  0.245E+00  0.169E+00  0.119E+00  0.838E-01
  0.558E-01  0.263E-01  0.943E-02  0.294E-02  0.773E-03  0.111E-03  0.424E-05
  0.114E-06  0.132E-08  0.673E-10  0.122E-10  0.367E-11  0.120E-11  0.389E-12
  0.123E-12  0.373E-13  0.141E-13  0.481E-14  0.157E-14  0.847E-15  0.473E-15
  0.259E-15  0.161E-15  0.987E-03  0.139E-01  0.845E-01  0.237E+00  0.425E+00
  0.413E+00  0.291E+00  0.199E+00  0.137E+00  0.901E-01  0.434E-01  0.155E-01
  0.517E-02  0.154E-02  0.309E-03  0.213E-04  0.147E-06  0.167E-08  0.782E-10
  0.120E-10  0.215E-12  0.182E-13  0.271E-14  0.637E-17  0.259E-14  0.110E-14
  0.189E-15  0.189E-16  0.229E-17  0.794E-17  0.254E-17  0.158E-17  0.357E-03
  0.518E-02  0.316E-01  0.928E-01  0.178E+00  0.183E+00  0.140E+00  0.103E+00
  0.739E-01  0.501E-01  0.242E-01  0.912E-02  0.321E-02  0.104E-02  0.235E-03
  0.311E-04  0.198E-05  0.161E-07  0.985E-09  0.118E-09  0.463E-11  0.502E-12
  0.306E-12  0.130E-12  0.405E-13  0.951E-14  0.224E-14  0.635E-15  0.311E-15
  0.787E-15  0.217E-15  0.135E-15  0.966E-04  0.143E-02  0.789E-02  0.238E-01
  0.529E-01  0.571E-01  0.442E-01  0.306E-01  0.195E-01  0.118E-01  0.535E-02
  0.223E-02  0.921E-03  0.442E-03  0.105E-03  0.111E-04  0.220E-06  0.800E-07
  0.916E-07  0.788E-07  0.509E-07  0.251E-07  0.999E-08  0.341E-08  0.108E-08
  0.329E-09  0.107E-09  0.374E-10  0.212E-10  0.119E-10  0.676E-11  0.419E-11
  0.426E-04  0.592E-03  0.290E-02  0.818E-02  0.189E-01  0.203E-01  0.134E-01
  0.694E-02  0.280E-02  0.156E-02  0.849E-03  0.387E-03  0.203E-03  0.130E-03
  0.592E-04  0.461E-04  0.403E-04  0.307E-04  0.197E-04  0.109E-04  0.542E-05
  0.246E-05  0.107E-05  0.470E-06  0.215E-06  0.101E-06  0.507E-07  0.272E-07
  0.152E-07  0.844E-08  0.466E-08  0.289E-08  0.161E-04  0.177E-03  0.113E-02
  0.378E-02  0.699E-02  0.814E-02  0.930E-02  0.995E-02  0.129E-01  0.124E-01
  0.809E-02  0.377E-02  0.189E-02  0.148E-02  0.135E-02  0.111E-02  0.789E-03
  0.513E-03  0.313E-03  0.190E-03  0.118E-03  0.769E-04  0.575E-04  0.485E-04
  0.397E-04  0.282E-04  0.169E-04  0.845E-05  0.361E-05  0.143E-05  0.556E-06
  0.345E-06  0.587E-04  0.737E-03  0.505E-02  0.149E-01  0.291E-01  0.335E-01
  0.369E-01  0.415E-01  0.530E-01  0.538E-01  0.399E-01  0.261E-01  0.205E-01
  0.189E-01  0.171E-01  0.139E-01  0.112E-01  0.940E-02  0.835E-02  0.854E-02
  0.847E-02  0.734E-02  0.563E-02  0.385E-02  0.236E-02  0.131E-02  0.670E-03
  0.325E-03  0.152E-03  0.729E-04  0.360E-04  0.224E-04  0.363E-03  0.517E-02
  0.366E-01  0.908E-01  0.187E+00  0.201E+00  0.179E+00  0.166E+00  0.171E+00
  0.190E+00  0.183E+00  0.176E+00  0.191E+00  0.204E+00  0.204E+00  0.195E+00
  0.198E+00  0.188E+00  0.154E+00  0.115E+00  0.820E-01  0.549E-01  0.348E-01
  0.209E-01  0.121E-01  0.679E-02  0.380E-02  0.214E-02  0.122E-02  0.723E-03
  0.439E-03  0.273E-03  0.411E-03  0.550E-02  0.434E-01  0.110E+00  0.194E+00
  0.234E+00  0.277E+00  0.381E+00  0.595E+00  0.937E+00  0.115E+01  0.134E+01
  0.151E+01  0.158E+01  0.146E+01  0.116E+01  0.865E+00  0.620E+00  0.429E+00
  0.287E+00  0.186E+00  0.117E+00  0.714E-01  0.433E-01  0.263E-01  0.160E-01
  0.991E-02  0.624E-02  0.396E-02  0.256E-02  0.166E-02  0.103E-02  0.593E-02
  0.145E+00  0.406E+00  0.517E+00  0.453E+00  0.655E+00  0.123E+01  0.270E+01
  0.442E+01  0.604E+01  0.691E+01  0.690E+01  0.568E+01  0.426E+01  0.313E+01
  0.224E+01  0.157E+01  0.106E+01  0.689E+00  0.438E+00  0.276E+00  0.173E+00
  0.109E+00  0.688E-01  0.440E-01  0.284E-01  0.186E-01  0.122E-01  0.803E-02
  0.528E-02  0.346E-02  0.215E-02  0.755E-01  0.160E+01  0.386E+01  0.389E+01
  0.481E+01  0.101E+02  0.146E+02  0.190E+02  0.199E+02  0.186E+02  0.156E+02
  0.125E+02  0.960E+01  0.679E+01  0.478E+01  0.325E+01  0.213E+01  0.136E+01
  0.864E+00  0.545E+00  0.346E+00  0.222E+00  0.143E+00  0.933E-01  0.613E-01
  0.404E-01  0.268E-01  0.178E-01  0.117E-01  0.766E-02  0.499E-02  0.310E-02
  0.236E+00  0.373E+01  0.104E+02  0.184E+02  0.528E+02  0.101E+03  0.964E+02
  0.546E+02  0.399E+02  0.314E+02  0.243E+02  0.180E+02  0.127E+02  0.821E+01
  0.531E+01  0.343E+01  0.220E+01  0.141E+01  0.914E+00  0.592E+00  0.387E+00
  0.254E+00  0.168E+00  0.111E+00  0.741E-01  0.492E-01  0.327E-01  0.216E-01
  0.141E-01  0.917E-02  0.593E-02  0.368E-02  0.222E+00  0.311E+01  0.149E+02
  0.779E+02  0.307E+03  0.287E+03  0.180E+03  0.103E+03  0.672E+02  0.443E+02
  0.326E+02  0.209E+02  0.129E+02  0.797E+01  0.507E+01  0.328E+01  0.217E+01
  0.142E+01  0.936E+00  0.620E+00  0.414E+00  0.277E+00  0.185E+00  0.124E+00
  0.822E-01  0.545E-01  0.360E-01  0.237E-01  0.154E-01  0.995E-02  0.642E-02
  0.399E-02  0.165E+00  0.299E+01  0.215E+02  0.115E+03  0.339E+03  0.317E+03
  0.220E+03  0.140E+03  0.813E+02  0.470E+02  0.308E+02  0.194E+02  0.122E+02
  0.781E+01  0.502E+01  0.325E+01  0.216E+01  0.144E+01  0.965E+00  0.647E+00
  0.433E+00  0.289E+00  0.193E+00  0.128E+00  0.849E-01  0.559E-01  0.368E-01
  0.241E-01  0.157E-01  0.101E-01  0.655E-02  0.406E-02
20080310 210000
'W006N482  '  48.20  -6.00     127.1  17.98 283.0   0.00 270.0
  0.470E-01  0.177E+01  0.198E+02  0.682E+02  0.166E+03  0.157E+03  0.135E+03
  0.622E+02  0.389E+02  0.299E+02  0.232E+02  0.158E+02  0.105E+02  0.684E+01
  0.458E+01  0.312E+01  0.211E+01  0.141E+01  0.929E+00  0.611E+00  0.403E+00
  0.265E+00  0.174E+00  0.114E+00  0.748E-01  0.489E-01  0.321E-01  0.210E-01
  0.137E-01  0.889E-02  0.577E-02  0.358E-02  0.117E+00  0.276E+01  0.176E+02
  0.352E+02  0.466E+02  0.372E+02  0.493E+02  0.382E+02  0.253E+02  0.208E+02
  0.165E+02  0.127E+02  0.934E+01  0.640E+01  0.437E+01  0.299E+01  0.203E+01
  0.136E+01  0.901E+00  0.590E+00  0.385E+00  0.251E+00  0.164E+00  0.107E+00
  0.695E-01  0.454E-01  0.296E-01  0.194E-01  0.126E-01  0.820E-02  0.532E-02
  0.331E-02  0.108E+00  0.190E+01  0.101E+02  0.179E+02  0.143E+02  0.626E+01
  0.911E+01  0.189E+02  0.208E+02  0.158E+02  0.129E+02  0.990E+01  0.722E+01
  0.506E+01  0.362E+01  0.252E+01  0.173E+01  0.116E+01  0.771E+00  0.507E+00
  0.333E+00  0.217E+00  0.142E+00  0.923E-01  0.602E-01  0.392E-01  0.256E-01
  0.167E-01  0.109E-01  0.704E-02  0.456E-02  0.283E-02  0.775E-01  0.127E+01
  0.581E+01  0.688E+01  0.142E+01  0.843E+00  0.159E+01  0.395E+01  0.997E+01
  0.124E+02  0.102E+02  0.796E+01  0.550E+01  0.369E+01  0.254E+01  0.175E+01
  0.120E+01  0.812E+00  0.542E+00  0.360E+00  0.239E+00  0.158E+00  0.104E+00
  0.682E-01  0.446E-01  0.291E-01  0.190E-01  0.124E-01  0.801E-02  0.518E-02
  0.334E-02  0.207E-02  0.334E-01  0.404E+00  0.123E+01  0.420E+00  0.109E+00
  0.284E+00  0.567E+00  0.142E+01  0.284E+01  0.551E+01  0.637E+01  0.435E+01
  0.338E+01  0.240E+01  0.166E+01  0.112E+01  0.757E+00  0.506E+00  0.336E+00
  0.221E+00  0.145E+00  0.944E-01  0.615E-01  0.400E-01  0.259E-01  0.167E-01
  0.108E-01  0.691E-02  0.440E-02  0.281E-02  0.179E-02  0.111E-02  0.376E-02
  0.234E-01  0.229E-01  0.249E-01  0.101E+00  0.209E+00  0.416E+00  0.106E+01
  0.142E+01  0.194E+01  0.306E+01  0.205E+01  0.129E+01  0.982E+00  0.704E+00
  0.497E+00  0.341E+00  0.227E+00  0.149E+00  0.971E-01  0.631E-01  0.404E-01
  0.257E-01  0.162E-01  0.102E-01  0.640E-02  0.403E-02  0.252E-02  0.156E-02
  0.968E-03  0.597E-03  0.371E-03  0.548E-04  0.515E-03  0.300E-02  0.129E-01
  0.460E-01  0.789E-01  0.140E+00  0.305E+00  0.331E+00  0.436E+00  0.758E+00
  0.765E+00  0.380E+00  0.234E+00  0.156E+00  0.980E-01  0.637E-01  0.412E-01
  0.263E-01  0.168E-01  0.106E-01  0.658E-02  0.407E-02  0.249E-02  0.150E-02
  0.897E-03  0.536E-03  0.320E-03  0.189E-03  0.111E-03  0.650E-04  0.403E-04
  0.535E-04  0.491E-03  0.123E-02  0.293E-02  0.120E-01  0.264E-01  0.466E-01
  0.823E-01  0.853E-01  0.900E-01  0.134E+00  0.166E+00  0.106E+00  0.428E-01
  0.198E-01  0.802E-02  0.361E-02  0.181E-02  0.978E-03  0.551E-03  0.314E-03
  0.181E-03  0.104E-03  0.595E-04  0.340E-04  0.191E-04  0.107E-04  0.591E-05
  0.319E-05  0.173E-05  0.929E-06  0.577E-06  0.531E-04  0.609E-03  0.236E-02
  0.550E-02  0.135E-01  0.280E-01  0.531E-01  0.779E-01  0.638E-01  0.422E-01
  0.321E-01  0.283E-01  0.204E-01  0.766E-02  0.193E-02  0.412E-03  0.101E-03
  0.370E-04  0.174E-04  0.907E-05  0.486E-05  0.264E-05  0.144E-05  0.796E-06
  0.441E-06  0.239E-06  0.130E-06  0.699E-07  0.385E-07  0.213E-07  0.119E-07
  0.737E-08  0.327E-03  0.482E-02  0.221E-01  0.526E-01  0.805E-01  0.675E-01
  0.601E-01  0.535E-01  0.392E-01  0.247E-01  0.129E-01  0.724E-02  0.363E-02
  0.126E-02  0.209E-03  0.153E-04  0.134E-05  0.292E-06  0.126E-06  0.636E-07
  0.321E-07  0.160E-07  0.785E-08  0.388E-08  0.193E-08  0.939E-09  0.465E-09
  0.226E-09  0.125E-09  0.699E-10  0.391E-10  0.243E-10  0.863E-03  0.145E-01
  0.730E-01  0.195E+00  0.324E+00  0.235E+00  0.156E+00  0.106E+00  0.807E-01
  0.536E-01  0.277E-01  0.113E-01  0.410E-02  0.126E-02  0.260E-03  0.114E-04
  0.367E-06  0.531E-08  0.149E-09  0.863E-11  0.223E-11  0.927E-12  0.382E-12
  0.158E-12  0.665E-13  0.267E-13  0.109E-13  0.446E-14  0.248E-14  0.139E-14
  0.793E-15  0.492E-15  0.872E-03  0.155E-01  0.831E-01  0.253E+00  0.489E+00
  0.392E+00  0.261E+00  0.167E+00  0.120E+00  0.811E-01  0.432E-01  0.178E-01
  0.710E-02  0.253E-02  0.665E-03  0.755E-04  0.788E-06  0.739E-08  0.339E-09
  0.243E-10  0.930E-12  0.559E-13  0.710E-14  0.163E-16  0.278E-17  0.198E-14
  0.458E-15  0.573E-16  0.774E-17  0.238E-17  0.634E-17  0.393E-17  0.277E-03
  0.518E-02  0.288E-01  0.927E-01  0.194E+00  0.170E+00  0.127E+00  0.870E-01
  0.661E-01  0.453E-01  0.246E-01  0.105E-01  0.439E-02  0.168E-02  0.476E-03
  0.834E-04  0.829E-05  0.212E-06  0.352E-08  0.993E-10  0.223E-10  0.288E-11
  0.125E-11  0.366E-12  0.774E-13  0.142E-13  0.254E-14  0.715E-15  0.352E-15
  0.637E-15  0.603E-15  0.374E-15  0.694E-04  0.124E-02  0.683E-02  0.228E-01
  0.565E-01  0.569E-01  0.426E-01  0.284E-01  0.197E-01  0.121E-01  0.609E-02
  0.269E-02  0.121E-02  0.627E-03  0.240E-03  0.402E-04  0.107E-05  0.504E-06
  0.364E-06  0.236E-06  0.118E-06  0.459E-07  0.147E-07  0.417E-08  0.114E-08
  0.312E-09  0.945E-10  0.317E-10  0.177E-10  0.990E-11  0.554E-11  0.344E-11
  0.375E-04  0.574E-03  0.296E-02  0.943E-02  0.243E-01  0.226E-01  0.144E-01
  0.810E-02  0.417E-02  0.237E-02  0.128E-02  0.551E-03  0.277E-03  0.224E-03
  0.162E-03  0.110E-03  0.801E-04  0.536E-04  0.308E-04  0.153E-04  0.674E-05
  0.276E-05  0.111E-05  0.455E-06  0.201E-06  0.965E-07  0.516E-07  0.281E-07
  0.148E-07  0.755E-08  0.393E-08  0.244E-08  0.379E-04  0.472E-03  0.247E-02
  0.612E-02  0.112E-01  0.115E-01  0.115E-01  0.124E-01  0.154E-01  0.145E-01
  0.983E-02  0.523E-02  0.299E-02  0.235E-02  0.216E-02  0.175E-02  0.122E-02
  0.771E-03  0.469E-03  0.295E-03  0.193E-03  0.150E-03  0.135E-03  0.115E-03
  0.843E-04  0.512E-04  0.256E-04  0.107E-04  0.391E-05  0.135E-05  0.481E-06
  0.299E-06  0.119E-03  0.141E-02  0.842E-02  0.204E-01  0.382E-01  0.412E-01
  0.415E-01  0.452E-01  0.540E-01  0.549E-01  0.446E-01  0.331E-01  0.284E-01
  0.276E-01  0.257E-01  0.216E-01  0.181E-01  0.157E-01  0.156E-01  0.160E-01
  0.141E-01  0.108E-01  0.749E-02  0.466E-02  0.261E-02  0.132E-02  0.626E-03
  0.285E-03  0.128E-03  0.598E-04  0.292E-04  0.182E-04  0.326E-03  0.459E-02
  0.347E-01  0.938E-01  0.194E+00  0.199E+00  0.177E+00  0.159E+00  0.168E+00
  0.193E+00  0.199E+00  0.211E+00  0.246E+00  0.277E+00  0.283E+00  0.281E+00
  0.278E+00  0.238E+00  0.180E+00  0.128E+00  0.865E-01  0.556E-01  0.337E-01
  0.195E-01  0.108E-01  0.589E-02  0.323E-02  0.181E-02  0.103E-02  0.609E-03
  0.371E-03  0.230E-03  0.282E-03  0.393E-02  0.350E-01  0.101E+00  0.188E+00
  0.213E+00  0.248E+00  0.331E+00  0.533E+00  0.906E+00  0.121E+01  0.154E+01
  0.179E+01  0.185E+01  0.160E+01  0.121E+01  0.876E+00  0.613E+00  0.414E+00
  0.270E+00  0.170E+00  0.103E+00  0.621E-01  0.372E-01  0.224E-01  0.136E-01
  0.847E-02  0.536E-02  0.341E-02  0.221E-02  0.144E-02  0.892E-03  0.998E-03
  0.377E-01  0.235E+00  0.322E+00  0.316E+00  0.469E+00  0.926E+00  0.238E+01
  0.424E+01  0.613E+01  0.723E+01  0.705E+01  0.561E+01  0.409E+01  0.291E+01
  0.204E+01  0.141E+01  0.929E+00  0.592E+00  0.370E+00  0.230E+00  0.144E+00
  0.912E-01  0.582E-01  0.375E-01  0.244E-01  0.160E-01  0.106E-01  0.696E-02
  0.458E-02  0.300E-02  0.186E-02  0.166E-01  0.474E+00  0.230E+01  0.238E+01
  0.296E+01  0.664E+01  0.122E+02  0.190E+02  0.189E+02  0.174E+02  0.143E+02
  0.111E+02  0.833E+01  0.580E+01  0.401E+01  0.270E+01  0.177E+01  0.114E+01
  0.730E+00  0.466E+00  0.300E+00  0.194E+00  0.127E+00  0.832E-01  0.549E-01
  0.363E-01  0.241E-01  0.159E-01  0.104E-01  0.681E-02  0.442E-02  0.274E-02
  0.604E-01  0.130E+01  0.584E+01  0.912E+01  0.246E+02  0.804E+02  0.859E+02
  0.496E+02  0.341E+02  0.264E+02  0.203E+02  0.154E+02  0.108E+02  0.697E+01
  0.452E+01  0.294E+01  0.191E+01  0.124E+01  0.815E+00  0.532E+00  0.350E+00
  0.231E+00  0.154E+00  0.102E+00  0.678E-01  0.449E-01  0.296E-01  0.195E-01
  0.127E-01  0.821E-02  0.530E-02  0.329E-02  0.514E-01  0.105E+01  0.662E+01
  0.318E+02  0.180E+03  0.242E+03  0.152E+03  0.853E+02  0.571E+02  0.373E+02
  0.275E+02  0.182E+02  0.113E+02  0.707E+01  0.457E+01  0.299E+01  0.199E+01
  0.131E+01  0.867E+00  0.574E+00  0.383E+00  0.255E+00  0.170E+00  0.113E+00
  0.749E-01  0.494E-01  0.325E-01  0.213E-01  0.138E-01  0.893E-02  0.576E-02
  0.358E-02  0.330E-01  0.865E+00  0.904E+01  0.621E+02  0.238E+03  0.258E+03
  0.182E+03  0.120E+03  0.678E+02  0.392E+02  0.264E+02  0.172E+02  0.111E+02
  0.723E+01  0.468E+01  0.305E+01  0.204E+01  0.136E+01  0.906E+00  0.604E+00
  0.402E+00  0.266E+00  0.176E+00  0.117E+00  0.769E-01  0.505E-01  0.332E-01
  0.217E-01  0.141E-01  0.914E-02  0.592E-02  0.367E-02
20080311 000000
'W006N482  '  48.20  -6.00     127.1  15.54 280.1   0.00 270.0
  0.474E-02  0.348E+00  0.733E+01  0.294E+02  0.907E+02  0.109E+03  0.110E+03
  0.554E+02  0.296E+02  0.227E+02  0.180E+02  0.128E+02  0.891E+01  0.592E+01
  0.400E+01  0.276E+01  0.189E+01  0.127E+01  0.846E+00  0.557E+00  0.366E+00
  0.240E+00  0.157E+00  0.103E+00  0.669E-01  0.436E-01  0.285E-01  0.186E-01
  0.121E-01  0.786E-02  0.510E-02  0.317E-02  0.207E-01  0.664E+00  0.762E+01
  0.162E+02  0.241E+02  0.196E+02  0.315E+02  0.356E+02  0.216E+02  0.172E+02
  0.138E+02  0.109E+02  0.803E+01  0.559E+01  0.380E+01  0.261E+01  0.178E+01
  0.120E+01  0.802E+00  0.529E+00  0.347E+00  0.227E+00  0.149E+00  0.972E-01
  0.634E-01  0.414E-01  0.270E-01  0.176E-01  0.114E-01  0.742E-02  0.481E-02
  0.298E-02  0.216E-01  0.502E+00  0.453E+01  0.874E+01  0.798E+01  0.297E+01
  0.549E+01  0.144E+02  0.196E+02  0.147E+02  0.122E+02  0.949E+01  0.675E+01
  0.461E+01  0.322E+01  0.222E+01  0.152E+01  0.103E+01  0.684E+00  0.453E+00
  0.300E+00  0.198E+00  0.130E+00  0.854E-01  0.560E-01  0.367E-01  0.240E-01
  0.157E-01  0.101E-01  0.656E-02  0.424E-02  0.263E-02  0.166E-01  0.344E+00
  0.266E+01  0.344E+01  0.819E+00  0.554E+00  0.109E+01  0.294E+01  0.817E+01
  0.118E+02  0.984E+01  0.796E+01  0.561E+01  0.372E+01  0.248E+01  0.168E+01
  0.114E+01  0.761E+00  0.505E+00  0.335E+00  0.222E+00  0.148E+00  0.983E-01
  0.651E-01  0.429E-01  0.282E-01  0.185E-01  0.121E-01  0.785E-02  0.508E-02
  0.327E-02  0.203E-02  0.809E-02  0.117E+00  0.592E+00  0.246E+00  0.152E+00
  0.307E+00  0.539E+00  0.121E+01  0.258E+01  0.485E+01  0.609E+01  0.423E+01
  0.342E+01  0.250E+01  0.176E+01  0.120E+01  0.814E+00  0.541E+00  0.356E+00
  0.232E+00  0.150E+00  0.973E-01  0.631E-01  0.410E-01  0.267E-01  0.173E-01
  0.112E-01  0.723E-02  0.463E-02  0.298E-02  0.190E-02  0.118E-02  0.241E-02
  0.164E-01  0.485E-01  0.114E+00  0.232E+00  0.364E+00  0.484E+00  0.728E+00
  0.902E+00  0.130E+01  0.230E+01  0.196E+01  0.131E+01  0.104E+01  0.793E+00
  0.599E+00  0.434E+00  0.298E+00  0.198E+00  0.129E+00  0.828E-01  0.524E-01
  0.328E-01  0.204E-01  0.127E-01  0.793E-02  0.498E-02  0.313E-02  0.195E-02
  0.122E-02  0.758E-03  0.470E-03  0.338E-03  0.248E-02  0.123E-01  0.485E-01
  0.126E+00  0.168E+00  0.185E+00  0.219E+00  0.193E+00  0.218E+00  0.355E+00
  0.464E+00  0.343E+00  0.243E+00  0.184E+00  0.131E+00  0.962E-01  0.706E-01
  0.504E-01  0.343E-01  0.222E-01  0.139E-01  0.851E-02  0.509E-02  0.299E-02
  0.174E-02  0.102E-02  0.599E-03  0.352E-03  0.209E-03  0.123E-03  0.763E-04
  0.577E-04  0.719E-03  0.289E-02  0.750E-02  0.281E-01  0.543E-01  0.759E-01
  0.829E-01  0.577E-01  0.441E-01  0.509E-01  0.660E-01  0.659E-01  0.385E-01
  0.219E-01  0.110E-01  0.594E-02  0.363E-02  0.236E-02  0.160E-02  0.110E-02
  0.719E-03  0.445E-03  0.261E-03  0.147E-03  0.802E-04  0.428E-04  0.225E-04
  0.117E-04  0.614E-05  0.324E-05  0.201E-05  0.605E-04  0.696E-03  0.320E-02
  0.824E-02  0.195E-01  0.427E-01  0.749E-01  0.856E-01  0.584E-01  0.330E-01
  0.185E-01  0.128E-01  0.990E-02  0.529E-02  0.182E-02  0.525E-03  0.190E-03
  0.915E-04  0.484E-04  0.264E-04  0.143E-04  0.780E-05  0.425E-05  0.234E-05
  0.129E-05  0.690E-06  0.368E-06  0.194E-06  0.103E-06  0.553E-07  0.300E-07
  0.186E-07  0.154E-03  0.283E-02  0.150E-01  0.385E-01  0.729E-01  0.707E-01
  0.746E-01  0.672E-01  0.477E-01  0.288E-01  0.142E-01  0.627E-02  0.300E-02
  0.117E-02  0.286E-03  0.327E-04  0.426E-05  0.164E-05  0.859E-06  0.448E-06
  0.226E-06  0.110E-06  0.520E-07  0.247E-07  0.120E-07  0.578E-08  0.286E-08
  0.140E-08  0.774E-09  0.429E-09  0.239E-09  0.148E-09  0.309E-03  0.706E-02
  0.440E-01  0.128E+00  0.272E+00  0.203E+00  0.140E+00  0.933E-01  0.723E-01
  0.521E-01  0.314E-01  0.149E-01  0.661E-02  0.252E-02  0.819E-03  0.135E-03
  0.336E-05  0.847E-07  0.167E-08  0.223E-09  0.905E-10  0.378E-10  0.153E-10
  0.596E-11  0.225E-11  0.840E-12  0.337E-12  0.136E-12  0.752E-13  0.418E-13
  0.234E-13  0.145E-13  0.286E-03  0.703E-02  0.477E-01  0.154E+00  0.396E+00
  0.334E+00  0.227E+00  0.140E+00  0.103E+00  0.772E-01  0.490E-01  0.241E-01
  0.115E-01  0.507E-02  0.184E-02  0.415E-03  0.318E-04  0.140E-06  0.391E-08
  0.184E-09  0.439E-11  0.314E-12  0.251E-13  0.342E-14  0.110E-16  0.330E-14
  0.121E-14  0.202E-15  0.209E-16  0.204E-17  0.967E-17  0.601E-17  0.815E-04
  0.214E-02  0.157E-01  0.545E-01  0.150E+00  0.144E+00  0.110E+00  0.737E-01
  0.571E-01  0.435E-01  0.283E-01  0.142E-01  0.714E-02  0.324E-02  0.126E-02
  0.319E-03  0.515E-04  0.469E-05  0.392E-07  0.185E-08  0.340E-10  0.149E-10
  0.683E-12  0.109E-12  0.156E-13  0.381E-14  0.564E-15  0.948E-16  0.285E-15
  0.636E-16  0.106E-14  0.659E-15  0.190E-04  0.463E-03  0.353E-02  0.129E-01
  0.399E-01  0.466E-01  0.368E-01  0.256E-01  0.185E-01  0.126E-01  0.744E-02
  0.379E-02  0.196E-02  0.101E-02  0.562E-03  0.165E-03  0.273E-04  0.112E-05
  0.504E-06  0.238E-06  0.903E-07  0.275E-07  0.706E-08  0.165E-08  0.381E-09
  0.917E-10  0.253E-10  0.825E-11  0.471E-11  0.266E-11  0.149E-11  0.927E-12
  0.149E-04  0.281E-03  0.185E-02  0.629E-02  0.178E-01  0.194E-01  0.133E-01
  0.864E-02  0.529E-02  0.321E-02  0.196E-02  0.934E-03  0.414E-03  0.288E-03
  0.271E-03  0.173E-03  0.101E-03  0.573E-04  0.289E-04  0.127E-04  0.496E-05
  0.181E-05  0.652E-06  0.247E-06  0.111E-06  0.594E-07  0.329E-07  0.166E-07
  0.784E-08  0.381E-08  0.198E-08  0.123E-08  0.297E-04  0.407E-03  0.220E-02
  0.550E-02  0.103E-01  0.109E-01  0.116E-01  0.134E-01  0.165E-01  0.168E-01
  0.132E-01  0.770E-02  0.406E-02  0.277E-02  0.239E-02  0.196E-02  0.133E-02
  0.803E-03  0.474E-03  0.295E-03  0.201E-03  0.179E-03  0.170E-03  0.132E-03
  0.820E-04  0.411E-04  0.169E-04  0.595E-05  0.188E-05  0.600E-06  0.214E-06
  0.133E-06  0.889E-04  0.115E-02  0.650E-02  0.162E-01  0.313E-01  0.360E-01
  0.393E-01  0.420E-01  0.511E-01  0.566E-01  0.508E-01  0.389E-01  0.312E-01
  0.290E-01  0.273E-01  0.234E-01  0.195E-01  0.173E-01  0.178E-01  0.183E-01
  0.153E-01  0.108E-01  0.681E-02  0.384E-02  0.195E-02  0.902E-03  0.393E-03
  0.167E-03  0.715E-04  0.327E-04  0.159E-04  0.988E-05  0.127E-03  0.194E-02
  0.161E-01  0.558E-01  0.133E+00  0.170E+00  0.167E+00  0.152E+00  0.155E+00
  0.171E+00  0.177E+00  0.186E+00  0.220E+00  0.257E+00  0.271E+00  0.275E+00
  0.274E+00  0.233E+00  0.172E+00  0.118E+00  0.768E-01  0.471E-01  0.273E-01
  0.151E-01  0.807E-02  0.426E-02  0.229E-02  0.127E-02  0.720E-03  0.429E-03
  0.264E-03  0.164E-03  0.922E-04  0.139E-02  0.143E-01  0.570E-01  0.124E+00
  0.161E+00  0.187E+00  0.229E+00  0.347E+00  0.596E+00  0.894E+00  0.122E+01
  0.152E+01  0.163E+01  0.145E+01  0.110E+01  0.791E+00  0.546E+00  0.362E+00
  0.230E+00  0.141E+00  0.843E-01  0.497E-01  0.294E-01  0.176E-01  0.107E-01
  0.664E-02  0.422E-02  0.270E-02  0.176E-02  0.115E-02  0.711E-03  0.176E-03
  0.642E-02  0.120E+00  0.180E+00  0.186E+00  0.241E+00  0.461E+00  0.125E+01
  0.277E+01  0.435E+01  0.573E+01  0.604E+01  0.501E+01  0.366E+01  0.256E+01
  0.176E+01  0.118E+01  0.764E+00  0.478E+00  0.296E+00  0.183E+00  0.115E+00
  0.726E-01  0.466E-01  0.302E-01  0.198E-01  0.131E-01  0.873E-02  0.576E-02
  0.379E-02  0.248E-02  0.154E-02  0.220E-02  0.939E-01  0.114E+01  0.134E+01
  0.157E+01  0.296E+01  0.733E+01  0.136E+02  0.150E+02  0.143E+02  0.121E+02
  0.944E+01  0.709E+01  0.485E+01  0.320E+01  0.210E+01  0.135E+01  0.872E+00
  0.567E+00  0.369E+00  0.242E+00  0.160E+00  0.106E+00  0.706E-01  0.471E-01
  0.313E-01  0.208E-01  0.138E-01  0.902E-02  0.587E-02  0.379E-02  0.235E-02
  0.754E-02  0.295E+00  0.260E+01  0.487E+01  0.100E+02  0.478E+02  0.724E+02
  0.459E+02  0.278E+02  0.210E+02  0.158E+02  0.119E+02  0.838E+01  0.545E+01
  0.353E+01  0.233E+01  0.154E+01  0.103E+01  0.684E+00  0.454E+00  0.303E+00
  0.202E+00  0.135E+00  0.901E-01  0.599E-01  0.396E-01  0.261E-01  0.171E-01
  0.111E-01  0.713E-02  0.458E-02  0.284E-02  0.574E-02  0.232E+00  0.248E+01
  0.112E+02  0.752E+02  0.208E+03  0.135E+03  0.752E+02  0.459E+02  0.281E+02
  0.201E+02  0.140E+02  0.904E+01  0.578E+01  0.379E+01  0.253E+01  0.172E+01
  0.116E+01  0.774E+00  0.517E+00  0.345E+00  0.230E+00  0.153E+00  0.101E+00
  0.665E-01  0.436E-01  0.285E-01  0.186E-01  0.120E-01  0.774E-02  0.499E-02
  0.310E-02  0.341E-02  0.172E+00  0.265E+01  0.235E+02  0.126E+03  0.219E+03
  0.151E+03  0.997E+02  0.535E+02  0.300E+02  0.197E+02  0.137E+02  0.913E+01
  0.612E+01  0.406E+01  0.270E+01  0.183E+01  0.124E+01  0.831E+00  0.553E+00
  0.366E+00  0.241E+00  0.159E+00  0.104E+00  0.682E-01  0.445E-01  0.291E-01
  0.190E-01  0.123E-01  0.797E-02  0.516E-02  0.320E-02
20080311 030000
'W006N482  '  48.20  -6.00     127.1  15.76 271.0   0.00 270.0
  0.438E-03  0.563E-01  0.199E+01  0.113E+02  0.414E+02  0.708E+02  0.820E+02
  0.506E+02  0.238E+02  0.181E+02  0.149E+02  0.114E+02  0.831E+01  0.575E+01
  0.391E+01  0.272E+01  0.188E+01  0.127E+01  0.853E+00  0.563E+00  0.370E+00
  0.243E+00  0.159E+00  0.104E+00  0.677E-01  0.442E-01  0.289E-01  0.189E-01
  0.123E-01  0.800E-02  0.521E-02  0.323E-02  0.284E-02  0.135E+00  0.274E+01
  0.756E+01  0.116E+02  0.939E+01  0.157E+02  0.322E+02  0.188E+02  0.148E+02
  0.125E+02  0.105E+02  0.803E+01  0.574E+01  0.389E+01  0.267E+01  0.183E+01
  0.124E+01  0.832E+00  0.548E+00  0.358E+00  0.234E+00  0.153E+00  0.100E+00
  0.658E-01  0.430E-01  0.281E-01  0.184E-01  0.120E-01  0.780E-02  0.507E-02
  0.315E-02  0.331E-02  0.106E+00  0.171E+01  0.409E+01  0.407E+01  0.142E+01
  0.293E+01  0.937E+01  0.183E+02  0.139E+02  0.115E+02  0.960E+01  0.718E+01
  0.503E+01  0.352E+01  0.241E+01  0.164E+01  0.111E+01  0.741E+00  0.492E+00
  0.326E+00  0.215E+00  0.142E+00  0.936E-01  0.615E-01  0.403E-01  0.264E-01
  0.173E-01  0.112E-01  0.725E-02  0.468E-02  0.291E-02  0.260E-02  0.732E-01
  0.102E+01  0.159E+01  0.464E+00  0.385E+00  0.768E+00  0.210E+01  0.651E+01
  0.118E+02  0.979E+01  0.818E+01  0.591E+01  0.393E+01  0.260E+01  0.179E+01
  0.125E+01  0.871E+00  0.591E+00  0.397E+00  0.265E+00  0.177E+00  0.119E+00
  0.789E-01  0.522E-01  0.344E-01  0.226E-01  0.148E-01  0.960E-02  0.620E-02
  0.399E-02  0.248E-02  0.215E-02  0.311E-01  0.261E+00  0.228E+00  0.218E+00
[...]
  0.282E-01  0.271E-01  0.289E-01  0.295E-01  0.279E-01  0.284E-01  0.308E-01
  0.296E-01  0.234E-01  0.163E-01  0.103E-01  0.584E-02  0.296E-02  0.134E-02
  0.542E-03  0.205E-03  0.785E-04  0.315E-04  0.196E-04  0.241E-07  0.140E-05
  0.359E-04  0.612E-03  0.407E-02  0.135E-01  0.448E-01  0.658E-01  0.745E-01
  0.848E-01  0.997E-01  0.106E+00  0.115E+00  0.142E+00  0.178E+00  0.201E+00
  0.206E+00  0.195E+00  0.162E+00  0.121E+00  0.851E-01  0.566E-01  0.355E-01
  0.209E-01  0.115E-01  0.596E-02  0.304E-02  0.156E-02  0.816E-03  0.450E-03
  0.259E-03  0.161E-03  0.285E-06  0.214E-04  0.443E-03  0.482E-02  0.119E-01
  0.195E-01  0.417E-01  0.626E-01  0.864E-01  0.132E+00  0.220E+00  0.383E+00
  0.582E+00  0.792E+00  0.865E+00  0.743E+00  0.562E+00  0.409E+00  0.289E+00
  0.196E+00  0.128E+00  0.789E-01  0.468E-01  0.272E-01  0.158E-01  0.931E-02
  0.561E-02  0.346E-02  0.216E-02  0.138E-02  0.893E-03  0.554E-03  0.183E-05
  0.151E-03  0.373E-02  0.483E-01  0.105E+00  0.104E+00  0.717E-01  0.117E+00
  0.281E+00  0.694E+00  0.137E+01  0.205E+01  0.247E+01  0.232E+01  0.173E+01
  0.121E+01  0.844E+00  0.570E+00  0.370E+00  0.229E+00  0.138E+00  0.836E-01
  0.517E-01  0.326E-01  0.210E-01  0.138E-01  0.912E-02  0.610E-02  0.407E-02
  0.271E-02  0.180E-02  0.112E-02  0.311E-05  0.311E-03  0.109E-01  0.176E+00
  0.705E+00  0.101E+01  0.183E+01  0.316E+01  0.399E+01  0.496E+01  0.515E+01
  0.463E+01  0.404E+01  0.326E+01  0.232E+01  0.152E+01  0.971E+00  0.598E+00
  0.367E+00  0.229E+00  0.146E+00  0.956E-01  0.643E-01  0.438E-01  0.301E-01
  0.207E-01  0.142E-01  0.970E-02  0.652E-02  0.432E-02  0.283E-02  0.176E-02
  0.217E-05  0.299E-03  0.158E-01  0.410E+00  0.639E+01  0.189E+02  0.479E+02
  0.507E+02  0.312E+02  0.137E+02  0.836E+01  0.677E+01  0.526E+01  0.357E+01
  0.230E+01  0.141E+01  0.897E+00  0.594E+00  0.402E+00  0.274E+00  0.187E+00
  0.128E+00  0.876E-01  0.603E-01  0.413E-01  0.281E-01  0.189E-01  0.126E-01
  0.826E-02  0.536E-02  0.344E-02  0.214E-02  0.159E-05  0.231E-03  0.136E-01
  0.430E+00  0.606E+01  0.225E+02  0.696E+02  0.729E+02  0.446E+02  0.206E+02
  0.102E+02  0.665E+01  0.462E+01  0.300E+01  0.196E+01  0.131E+01  0.930E+00
  0.675E+00  0.482E+00  0.335E+00  0.231E+00  0.159E+00  0.108E+00  0.733E-01
  0.490E-01  0.324E-01  0.212E-01  0.138E-01  0.890E-02  0.571E-02  0.365E-02
  0.227E-02  0.354E-05  0.416E-03  0.165E-01  0.366E+00  0.404E+01  0.195E+02
  0.554E+02  0.601E+02  0.305E+02  0.156E+02  0.948E+01  0.571E+01  0.398E+01
  0.268E+01  0.186E+01  0.134E+01  0.992E+00  0.735E+00  0.540E+00  0.383E+00
  0.265E+00  0.180E+00  0.120E+00  0.790E-01  0.517E-01  0.335E-01  0.216E-01
  0.139E-01  0.892E-02  0.572E-02  0.367E-02  0.228E-02
20080312 180000
'W006N482  '  48.20  -6.00     127.1  10.20 269.6   0.00 270.0
  0.112E-05  0.168E-03  0.879E-02  0.185E+00  0.232E+01  0.664E+01  0.205E+02
  0.413E+02  0.265E+02  0.115E+02  0.678E+01  0.520E+01  0.389E+01  0.266E+01
  0.177E+01  0.126E+01  0.945E+00  0.714E+00  0.530E+00  0.378E+00  0.261E+00
  0.176E+00  0.117E+00  0.769E-01  0.501E-01  0.324E-01  0.209E-01  0.134E-01
  0.862E-02  0.553E-02  0.356E-02  0.221E-02  0.141E-05  0.224E-03  0.120E-01
  0.264E+00  0.219E+01  0.261E+01  0.131E+01  0.366E+00  0.117E+02  0.852E+01
  0.584E+01  0.491E+01  0.401E+01  0.288E+01  0.189E+01  0.129E+01  0.944E+00
  0.703E+00  0.509E+00  0.356E+00  0.243E+00  0.164E+00  0.110E+00  0.732E-01
  0.482E-01  0.315E-01  0.205E-01  0.133E-01  0.854E-02  0.549E-02  0.353E-02
  0.219E-02  0.159E-05  0.194E-03  0.843E-02  0.159E+00  0.857E+00  0.488E+00
  0.190E+00  0.357E+00  0.267E+00  0.367E+01  0.476E+01  0.406E+01  0.363E+01
  0.280E+01  0.187E+01  0.120E+01  0.827E+00  0.588E+00  0.420E+00  0.294E+00
  0.202E+00  0.137E+00  0.929E-01  0.631E-01  0.427E-01  0.286E-01  0.191E-01
  0.126E-01  0.820E-02  0.530E-02  0.341E-02  0.212E-02  0.296E-05  0.150E-03
  0.482E-02  0.651E-01  0.171E+00  0.375E-01  0.503E-01  0.858E-01  0.199E+00
  0.533E+00  0.240E+01  0.378E+01  0.292E+01  0.227E+01  0.159E+01  0.105E+01
  0.719E+00  0.495E+00  0.329E+00  0.217E+00  0.146E+00  0.101E+00  0.702E-01
  0.488E-01  0.337E-01  0.230E-01  0.156E-01  0.106E-01  0.701E-02  0.460E-02
  0.299E-02  0.186E-02  0.296E-04  0.849E-04  0.138E-02  0.959E-02  0.158E-01
  0.441E-01  0.819E-01  0.119E+00  0.157E+00  0.286E+00  0.667E+00  0.191E+01
  0.258E+01  0.161E+01  0.118E+01  0.800E+00  0.560E+00  0.396E+00  0.273E+00
  0.181E+00  0.118E+00  0.765E-01  0.503E-01  0.336E-01  0.227E-01  0.154E-01
  0.104E-01  0.708E-02  0.476E-02  0.319E-02  0.211E-02  0.131E-02  0.129E-04
  0.494E-04  0.864E-03  0.659E-02  0.299E-01  0.916E-01  0.168E+00  0.217E+00
  0.198E+00  0.225E+00  0.359E+00  0.676E+00  0.132E+01  0.113E+01  0.707E+00
  0.529E+00  0.373E+00  0.269E+00  0.192E+00  0.132E+00  0.884E-01  0.582E-01
  0.378E-01  0.241E-01  0.153E-01  0.967E-02  0.620E-02  0.401E-02  0.259E-02
  0.170E-02  0.111E-02  0.692E-03  0.674E-07  0.292E-04  0.634E-03  0.462E-02
  0.221E-01  0.552E-01  0.836E-01  0.953E-01  0.769E-01  0.833E-01  0.112E+00
  0.172E+00  0.303E+00  0.422E+00  0.345E+00  0.260E+00  0.208E+00  0.150E+00
  0.106E+00  0.728E-01  0.490E-01  0.323E-01  0.208E-01  0.130E-01  0.787E-02
  0.467E-02  0.276E-02  0.164E-02  0.971E-03  0.593E-03  0.367E-03  0.228E-03
  0.671E-07  0.429E-05  0.143E-03  0.157E-02  0.103E-01  0.307E-01  0.646E-01
  0.801E-01  0.567E-01  0.401E-01  0.369E-01  0.404E-01  0.521E-01  0.686E-01
  0.831E-01  0.759E-01  0.659E-01  0.504E-01  0.356E-01  0.244E-01  0.159E-01
  0.100E-01  0.610E-02  0.357E-02  0.202E-02  0.109E-02  0.576E-03  0.298E-03
  0.151E-03  0.780E-04  0.411E-04  0.255E-04  0.241E-07  0.182E-05  0.551E-04
  0.757E-03  0.548E-02  0.245E-01  0.982E-01  0.154E+00  0.117E+00  0.647E-01
  0.382E-01  0.255E-01  0.164E-01  0.113E-01  0.100E-01  0.971E-02  0.740E-02
  0.485E-02  0.333E-02  0.224E-02  0.144E-02  0.881E-03  0.505E-03  0.272E-03
  0.138E-03  0.655E-04  0.298E-04  0.129E-04  0.529E-05  0.214E-05  0.870E-06
  0.540E-06  0.298E-07  0.226E-05  0.589E-04  0.779E-03  0.409E-02  0.107E-01
  0.302E-01  0.569E-01  0.582E-01  0.416E-01  0.276E-01  0.185E-01  0.109E-01
  0.540E-02  0.254E-02  0.133E-02  0.700E-03  0.298E-03  0.111E-03  0.396E-04
  0.188E-04  0.919E-05  0.449E-05  0.213E-05  0.977E-06  0.424E-06  0.182E-06
  0.780E-07  0.349E-07  0.164E-07  0.819E-08  0.509E-08  0.477E-07  0.393E-05
  0.109E-03  0.175E-02  0.104E-01  0.190E-01  0.417E-01  0.497E-01  0.390E-01
  0.281E-01  0.234E-01  0.195E-01  0.140E-01  0.867E-02  0.513E-02  0.295E-02
  0.159E-02  0.745E-03  0.244E-03  0.484E-04  0.197E-05  0.101E-06  0.299E-07
  0.101E-07  0.344E-08  0.116E-08  0.421E-09  0.159E-09  0.855E-10  0.462E-10
  0.251E-10  0.156E-10  0.417E-07  0.374E-05  0.113E-03  0.200E-02  0.142E-01
  0.299E-01  0.653E-01  0.684E-01  0.483E-01  0.317E-01  0.276E-01  0.257E-01
  0.201E-01  0.138E-01  0.920E-02  0.589E-02  0.333E-02  0.151E-02  0.533E-03
  0.128E-03  0.118E-04  0.878E-07  0.945E-09  0.326E-10  0.841E-12  0.131E-12
  0.211E-13  0.123E-13  0.499E-14  0.206E-14  0.105E-14  0.650E-15  0.110E-07
  0.105E-05  0.350E-04  0.665E-03  0.526E-02  0.132E-01  0.337E-01  0.385E-01
  0.279E-01  0.184E-01  0.161E-01  0.151E-01  0.119E-01  0.839E-02  0.576E-02
  0.380E-02  0.217E-02  0.102E-02  0.365E-03  0.939E-04  0.153E-04  0.124E-05
  0.658E-08  0.420E-09  0.249E-10  0.113E-11  0.547E-13  0.497E-15  0.383E-15
  0.101E-14  0.303E-15  0.188E-15  0.186E-08  0.189E-06  0.697E-05  0.141E-03
  0.120E-02  0.396E-02  0.122E-01  0.138E-01  0.101E-01  0.628E-02  0.465E-02
  0.369E-02  0.277E-02  0.204E-02  0.150E-02  0.104E-02  0.586E-03  0.346E-03
  0.150E-03  0.474E-04  0.111E-04  0.142E-05  0.187E-06  0.256E-07  0.185E-08
  0.646E-10  0.958E-11  0.620E-11  0.811E-11  0.473E-11  0.184E-11  0.114E-11
  0.122E-08  0.110E-06  0.350E-05  0.639E-04  0.473E-03  0.162E-02  0.425E-02
  0.382E-02  0.246E-02  0.181E-02  0.152E-02  0.114E-02  0.746E-03  0.423E-03
  0.264E-03  0.264E-03  0.283E-03  0.249E-03  0.172E-03  0.967E-04  0.441E-04
  0.162E-04  0.546E-05  0.190E-05  0.178E-05  0.241E-05  0.200E-05  0.102E-05
  0.335E-06  0.696E-07  0.898E-08  0.557E-08  0.298E-08  0.195E-06  0.428E-05
  0.580E-04  0.290E-03  0.667E-03  0.166E-02  0.276E-02  0.477E-02  0.815E-02
  0.958E-02  0.822E-02  0.648E-02  0.426E-02  0.275E-02  0.241E-02  0.245E-02
  0.221E-02  0.172E-02  0.128E-02  0.965E-03  0.868E-03  0.969E-03  0.898E-03
  0.630E-03  0.351E-03  0.156E-03  0.536E-04  0.139E-04  0.275E-05  0.441E-06
  0.274E-06  0.781E-08  0.491E-06  0.106E-04  0.149E-03  0.823E-03  0.208E-02
  0.604E-02  0.103E-01  0.162E-01  0.262E-01  0.320E-01  0.293E-01  0.255E-01
  0.222E-01  0.205E-01  0.218E-01  0.233E-01  0.222E-01  0.217E-01  0.230E-01
  0.223E-01  0.178E-01  0.123E-01  0.767E-02  0.423E-02  0.202E-02  0.829E-03
  0.292E-03  0.918E-04  0.280E-04  0.882E-05  0.547E-05  0.875E-08  0.584E-06
  0.174E-04  0.335E-03  0.279E-02  0.101E-01  0.341E-01  0.521E-01  0.549E-01
  0.589E-01  0.690E-01  0.718E-01  0.739E-01  0.887E-01  0.114E+00  0.140E+00
  0.150E+00  0.148E+00  0.127E+00  0.973E-01  0.693E-01  0.463E-01  0.289E-01
  0.167E-01  0.881E-02  0.430E-02  0.200E-02  0.924E-03  0.431E-03  0.212E-03
  0.110E-03  0.681E-04  0.292E-07  0.299E-05  0.108E-03  0.150E-02  0.857E-02
  0.133E-01  0.295E-01  0.442E-01  0.549E-01  0.774E-01  0.127E+00  0.225E+00
  0.368E+00  0.535E+00  0.628E+00  0.579E+00  0.452E+00  0.336E+00  0.242E+00
  0.166E+00  0.109E+00  0.674E-01  0.397E-01  0.226E-01  0.127E-01  0.717E-02
  0.412E-02  0.242E-02  0.143E-02  0.877E-03  0.547E-03  0.340E-03  0.195E-06
  0.226E-04  0.904E-03  0.138E-01  0.755E-01  0.582E-01  0.387E-01  0.533E-01
  0.124E+00  0.312E+00  0.740E+00  0.134E+01  0.184E+01  0.188E+01  0.146E+01
  0.104E+01  0.722E+00  0.493E+00  0.325E+00  0.203E+00  0.123E+00  0.742E-01
  0.452E-01  0.279E-01  0.175E-01  0.111E-01  0.713E-02  0.464E-02  0.302E-02
  0.199E-02  0.131E-02  0.816E-03  0.504E-06  0.660E-04  0.317E-02  0.604E-01
  0.399E+00  0.462E+00  0.843E+00  0.215E+01  0.269E+01  0.334E+01  0.387E+01
  0.383E+01  0.343E+01  0.286E+01  0.208E+01  0.137E+01  0.876E+00  0.546E+00
  0.335E+00  0.207E+00  0.129E+00  0.823E-01  0.538E-01  0.358E-01  0.240E-01
  0.162E-01  0.111E-01  0.753E-02  0.508E-02  0.339E-02  0.224E-02  0.139E-02
  0.430E-06  0.803E-04  0.548E-02  0.158E+00  0.227E+01  0.952E+01  0.273E+02
  0.477E+02  0.284E+02  0.121E+02  0.686E+01  0.563E+01  0.451E+01  0.324E+01
  0.211E+01  0.129E+01  0.811E+00  0.524E+00  0.341E+00  0.226E+00  0.152E+00
  0.104E+00  0.718E-01  0.500E-01  0.347E-01  0.239E-01  0.163E-01  0.110E-01
  0.726E-02  0.475E-02  0.307E-02  0.191E-02  0.332E-06  0.567E-04  0.449E-02
  0.169E+00  0.264E+01  0.122E+02  0.420E+02  0.684E+02  0.386E+02  0.182E+02
  0.877E+01  0.562E+01  0.405E+01  0.271E+01  0.174E+01  0.114E+01  0.782E+00
  0.564E+00  0.406E+00  0.286E+00  0.199E+00  0.138E+00  0.950E-01  0.652E-01
  0.443E-01  0.297E-01  0.197E-01  0.130E-01  0.840E-02  0.540E-02  0.346E-02
  0.215E-02  0.424E-06  0.708E-04  0.496E-02  0.140E+00  0.203E+01  0.124E+02
  0.435E+02  0.608E+02  0.307E+02  0.153E+02  0.816E+01  0.498E+01  0.354E+01
  0.241E+01  0.164E+01  0.117E+01  0.865E+00  0.648E+00  0.483E+00  0.347E+00
  0.241E+00  0.165E+00  0.112E+00  0.747E-01  0.493E-01  0.322E-01  0.209E-01
  0.135E-01  0.864E-02  0.554E-02  0.355E-02  0.220E-02
20080312 210000
'W006N482  '  48.20  -6.00     127.1   9.10 264.7   0.00 270.0
  0.555E-06  0.499E-04  0.267E-02  0.742E-01  0.123E+01  0.531E+01  0.152E+02
  0.361E+02  0.274E+02  0.115E+02  0.593E+01  0.472E+01  0.361E+01  0.250E+01
  0.160E+01  0.107E+01  0.769E+00  0.580E+00  0.437E+00  0.320E+00  0.226E+00
  0.155E+00  0.105E+00  0.702E-01  0.462E-01  0.301E-01  0.195E-01  0.125E-01
  0.802E-02  0.512E-02  0.328E-02  0.204E-02  0.337E-06  0.626E-04  0.449E-02
  0.119E+00  0.142E+01  0.245E+01  0.122E+01  0.275E+00  0.906E+01  0.754E+01
  0.497E+01  0.420E+01  0.351E+01  0.274E+01  0.178E+01  0.115E+01  0.807E+00
  0.601E+00  0.443E+00  0.318E+00  0.221E+00  0.151E+00  0.102E+00  0.680E-01
  0.449E-01  0.294E-01  0.191E-01  0.124E-01  0.795E-02  0.510E-02  0.327E-02
  0.203E-02  0.325E-06  0.568E-04  0.341E-02  0.738E-01  0.651E+00  0.490E+00
  0.133E+00  0.269E+00  0.130E+00  0.213E+01  0.391E+01  0.336E+01  0.311E+01
  0.256E+01  0.178E+01  0.113E+01  0.767E+00  0.543E+00  0.392E+00  0.277E+00
  0.191E+00  0.130E+00  0.877E-01  0.594E-01  0.401E-01  0.269E-01  0.179E-01
  0.118E-01  0.769E-02  0.498E-02  0.321E-02  0.199E-02  0.356E-05  0.495E-04
  0.195E-02  0.304E-01  0.148E+00  0.342E-01  0.365E-01  0.554E-01  0.128E+00
  0.299E+00  0.118E+01  0.287E+01  0.253E+01  0.203E+01  0.148E+01  0.101E+01
  0.683E+00  0.481E+00  0.328E+00  0.219E+00  0.147E+00  0.100E+00  0.691E-01
  0.477E-01  0.327E-01  0.223E-01  0.151E-01  0.102E-01  0.676E-02  0.445E-02
  0.290E-02  0.180E-02  0.670E-04  0.121E-03  0.765E-03  0.660E-02  0.198E-01
  0.502E-01  0.941E-01  0.112E+00  0.113E+00  0.169E+00  0.324E+00  0.917E+00
  0.198E+01  0.145E+01  0.106E+01  0.755E+00  0.538E+00  0.387E+00  0.276E+00
  0.187E+00  0.123E+00  0.796E-01  0.523E-01  0.349E-01  0.235E-01  0.159E-01
  0.108E-01  0.737E-02  0.496E-02  0.332E-02  0.220E-02  0.137E-02  0.273E-04
  0.801E-04  0.828E-03  0.759E-02  0.386E-01  0.110E+00  0.200E+00  0.230E+00
  0.170E+00  0.148E+00  0.192E+00  0.347E+00  0.764E+00  0.106E+01  0.652E+00
  0.487E+00  0.355E+00  0.262E+00  0.194E+00  0.139E+00  0.955E-01  0.642E-01
  0.425E-01  0.276E-01  0.177E-01  0.114E-01  0.731E-02  0.473E-02  0.306E-02
  0.200E-02  0.131E-02  0.811E-03  0.120E-06  0.456E-04  0.850E-03  0.666E-02
  0.302E-01  0.699E-01  0.101E+00  0.102E+00  0.678E-01  0.505E-01  0.619E-01
  0.948E-01  0.176E+00  0.312E+00  0.344E+00  0.248E+00  0.200E+00  0.148E+00
  0.108E+00  0.779E-01  0.556E-01  0.391E-01  0.268E-01  0.177E-01  0.114E-01
  0.707E-02  0.433E-02  0.263E-02  0.158E-02  0.960E-03  0.589E-03  0.366E-03
  0.119E-06  0.951E-05  0.243E-03  0.225E-02  0.126E-01  0.392E-01  0.708E-01
  0.829E-01  0.566E-01  0.329E-01  0.262E-01  0.284E-01  0.370E-01  0.518E-01
  0.739E-01  0.747E-01  0.655E-01  0.538E-01  0.397E-01  0.284E-01  0.198E-01
  0.137E-01  0.944E-02  0.638E-02  0.414E-02  0.256E-02  0.151E-02  0.857E-03
  0.466E-03  0.254E-03  0.137E-03  0.851E-04  0.198E-07  0.155E-05  0.606E-04
  0.901E-03  0.623E-02  0.277E-01  0.931E-01  0.158E+00  0.124E+00  0.709E-01
  0.382E-01  0.249E-01  0.160E-01  0.106E-01  0.889E-02  0.902E-02  0.769E-02
  0.562E-02  0.432E-02  0.329E-02  0.234E-02  0.160E-02  0.104E-02  0.665E-03
  0.419E-03  0.258E-03  0.153E-03  0.846E-04  0.427E-04  0.202E-04  0.904E-05
  0.561E-05  0.173E-07  0.111E-05  0.360E-04  0.568E-03  0.373E-02  0.103E-01
  0.305E-01  0.581E-01  0.614E-01  0.454E-01  0.290E-01  0.194E-01  0.115E-01
  0.577E-02  0.259E-02  0.128E-02  0.719E-03  0.378E-03  0.199E-03  0.104E-03
  0.593E-04  0.362E-04  0.209E-04  0.114E-04  0.602E-05  0.306E-05  0.157E-05
  0.808E-06  0.406E-06  0.191E-06  0.836E-07  0.519E-07  0.244E-07  0.112E-05
  0.434E-04  0.834E-03  0.652E-02  0.137E-01  0.325E-01  0.471E-01  0.348E-01
  0.240E-01  0.196E-01  0.169E-01  0.130E-01  0.821E-02  0.477E-02  0.272E-02
  0.154E-02  0.810E-03  0.357E-03  0.110E-03  0.203E-04  0.128E-05  0.413E-06
  0.183E-06  0.766E-07  0.298E-07  0.118E-07  0.463E-08  0.242E-08  0.127E-08
  0.673E-09  0.418E-09  0.204E-07  0.991E-06  0.431E-04  0.909E-03  0.835E-02
  0.208E-01  0.498E-01  0.645E-01  0.428E-01  0.261E-01  0.212E-01  0.205E-01
  0.176E-01  0.123E-01  0.810E-02  0.517E-02  0.316E-02  0.168E-02  0.713E-03
  0.235E-03  0.514E-04  0.319E-05  0.152E-07  0.507E-09  0.134E-09  0.407E-10
  0.125E-10  0.348E-11  0.188E-11  0.101E-11  0.546E-12  0.339E-12  0.503E-08
  0.259E-06  0.129E-04  0.295E-03  0.306E-02  0.885E-02  0.252E-01  0.363E-01
  0.246E-01  0.150E-01  0.123E-01  0.120E-01  0.104E-01  0.743E-02  0.502E-02
  0.327E-02  0.205E-02  0.111E-02  0.480E-03  0.161E-03  0.379E-04  0.523E-05
  0.249E-06  0.101E-08  0.692E-10  0.224E-11  0.851E-13  0.110E-15  0.322E-16
  0.770E-15  0.359E-15  0.223E-15  0.694E-09  0.447E-07  0.248E-05  0.618E-04
  0.665E-03  0.250E-02  0.863E-02  0.125E-01  0.854E-02  0.492E-02  0.356E-02
  0.298E-02  0.244E-02  0.177E-02  0.127E-02  0.895E-03  0.585E-03  0.334E-03
  0.168E-03  0.641E-04  0.180E-04  0.322E-05  0.150E-06  0.110E-07  0.879E-09
  0.204E-10  0.197E-11  0.267E-12  0.384E-12  0.302E-12  0.123E-12  0.763E-13
  0.320E-09  0.322E-07  0.138E-05  0.304E-04  0.258E-03  0.103E-02  0.316E-02
  0.321E-02  0.188E-02  0.141E-02  0.132E-02  0.105E-02  0.752E-03  0.439E-03
  0.217E-03  0.164E-03  0.168E-03  0.151E-03  0.110E-03  0.614E-04  0.270E-04
  0.873E-05  0.223E-05  0.435E-06  0.191E-06  0.402E-06  0.452E-06  0.284E-06
  0.108E-06  0.250E-07  0.341E-08  0.212E-08  0.107E-08  0.776E-07  0.216E-05
  0.340E-04  0.209E-03  0.487E-03  0.124E-02  0.209E-02  0.351E-02  0.626E-02
  0.769E-02  0.672E-02  0.560E-02  0.383E-02  0.222E-02  0.154E-02  0.144E-02
  0.134E-02  0.103E-02  0.718E-03  0.495E-03  0.367E-03  0.378E-03  0.393E-03
  0.316E-03  0.195E-03  0.939E-04  0.343E-04  0.919E-05  0.177E-05  0.251E-06
  0.156E-06  0.390E-08  0.186E-06  0.519E-05  0.867E-04  0.588E-03  0.155E-02
  0.460E-02  0.795E-02  0.118E-01  0.191E-01  0.243E-01  0.219E-01  0.189E-01
  0.159E-01  0.134E-01  0.128E-01  0.138E-01  0.135E-01  0.123E-01  0.123E-01
  0.129E-01  0.115E-01  0.861E-02  0.566E-02  0.327E-02  0.162E-02  0.675E-03
  0.234E-03  0.687E-04  0.181E-04  0.457E-05  0.284E-05  0.108E-07  0.209E-06
  0.767E-05  0.170E-03  0.177E-02  0.684E-02  0.254E-01  0.435E-01  0.415E-01
  0.411E-01  0.470E-01  0.482E-01  0.459E-01  0.507E-01  0.607E-01  0.757E-01
  0.892E-01  0.943E-01  0.893E-01  0.731E-01  0.542E-01  0.375E-01  0.241E-01
  0.143E-01  0.772E-02  0.376E-02  0.169E-02  0.719E-03  0.301E-03  0.130E-03
  0.586E-04  0.364E-04  0.108E-07  0.632E-06  0.267E-04  0.401E-03  0.575E-02
  0.900E-02  0.210E-01  0.341E-01  0.367E-01  0.459E-01  0.716E-01  0.120E+00
  0.204E+00  0.328E+00  0.404E+00  0.407E+00  0.344E+00  0.266E+00  0.198E+00
  0.139E+00  0.928E-01  0.589E-01  0.354E-01  0.202E-01  0.112E-01  0.613E-02
  0.335E-02  0.186E-02  0.104E-02  0.597E-03  0.352E-03  0.218E-03  0.318E-07
  0.484E-05  0.234E-03  0.404E-02  0.554E-01  0.376E-01  0.243E-01  0.298E-01
  0.605E-01  0.133E+00  0.319E+00  0.675E+00  0.116E+01  0.140E+01  0.118E+01
  0.866E+00  0.605E+00  0.421E+00  0.285E+00  0.183E+00  0.112E+00  0.672E-01
  0.405E-01  0.246E-01  0.151E-01  0.934E-02  0.583E-02  0.368E-02  0.233E-02
  0.149E-02  0.964E-03  0.598E-03  0.959E-07  0.171E-04  0.104E-02  0.236E-01
  0.261E+00  0.274E+00  0.365E+00  0.154E+01  0.198E+01  0.194E+01  0.253E+01
  0.293E+01  0.278E+01  0.244E+01  0.182E+01  0.120E+01  0.775E+00  0.497E+00
  0.308E+00  0.190E+00  0.118E+00  0.736E-01  0.469E-01  0.304E-01  0.199E-01
  0.132E-01  0.880E-02  0.590E-02  0.394E-02  0.261E-02  0.172E-02  0.107E-02
  0.187E-06  0.292E-04  0.212E-02  0.681E-01  0.973E+00  0.482E+01  0.126E+02
  0.431E+02  0.264E+02  0.108E+02  0.568E+01  0.463E+01  0.376E+01  0.292E+01
  0.194E+01  0.119E+01  0.735E+00  0.473E+00  0.306E+00  0.199E+00  0.130E+00
  0.854E-01  0.572E-01  0.392E-01  0.272E-01  0.188E-01  0.130E-01  0.884E-02
  0.594E-02  0.394E-02  0.258E-02  0.160E-02  0.863E-06  0.509E-04  0.186E-02
  0.754E-01  0.125E+01  0.701E+01  0.253E+02  0.641E+02  0.347E+02  0.169E+02
  0.771E+01  0.487E+01  0.363E+01  0.255E+01  0.160E+01  0.102E+01  0.671E+00
  0.464E+00  0.327E+00  0.229E+00  0.159E+00  0.111E+00  0.775E-01  0.538E-01
  0.370E-01  0.252E-01  0.169E-01  0.113E-01  0.740E-02  0.480E-02  0.309E-02
  0.192E-02  0.813E-06  0.452E-04  0.166E-02  0.588E-01  0.989E+00  0.770E+01
  0.300E+02  0.584E+02  0.322E+02  0.163E+02  0.730E+01  0.453E+01  0.329E+01
  0.226E+01  0.147E+01  0.997E+00  0.693E+00  0.510E+00  0.384E+00  0.282E+00
  0.200E+00  0.139E+00  0.956E-01  0.651E-01  0.438E-01  0.291E-01  0.191E-01
  0.124E-01  0.796E-02  0.510E-02  0.326E-02  0.202E-02
