$ boundary option: READ or WRITE
WRITE 
$ Interpolation method. 1: nearest, 2: linear interpolation
2 
$ Type of spectra files: 'A' for ASCII and 'N' for NetCDF (this option 
$                                           is not yet implemented) 
A
$ list of spectra files. These ASCII files use the WAVEWATCH III format
$ examples of such files can be found at (for example): 
$   ftp://polar.ncep.noaa.gov/pub/waves/develop/glw.latest_run/   (the *.spec.gz files)
$   http://tinyurl.com/iowagaftp/HINDCAST/GLOBAL/2009_ECMWF/SPEC
$
$ In the case of NetCDF files ... that is coming ... 
$
../input/mww3.W0052N489.spec
../input/mww3.W005N476.spec
../input/mww3.W006N476.spec
../input/mww3.W006N482.spec
../input/mww3.W006N489.spec
'STOPSTRING'
$ 
