$ -------------------------------------------------------------------- $
$ WAVEWATCH III Boundary input processing                              $
$--------------------------------------------------------------------- $
$ This program works like ww3_bound, but using input spectra in NetCDF
$ rather than ASCI format. For a detailed description see the
$ ww3_bound.inp input file.
$
 WRITE 
$
 2 
$
 0
$
../input/ww3.W0052N489_20080310_spec.nc
../input/ww3.W005N476_20080310_spec.nc
../input/ww3.W006N476_20080310_spec.nc
../input/ww3.W006N482_20080310_spec.nc
../input/ww3.W006N489_20080310_spec.nc
'STOPSTRING'
$
$ -------------------------------------------------------------------- $
$ End of input file                                                    $
$ -------------------------------------------------------------------- $
