$ WAVEWATCH III Grid output post-processing
$ -----------------------------------------
$ Time, time increment and number of outputs
$
 20020101 120000  60  10000
$
  N
  DPT HS TM1 DIR SPR HIG
$
 3 0
$
 1 30 2 2  3 2
