! -------------------------------------------------------------------- !
! WAVEWATCH III ww3_ounp.nml - Point output post-processing            !
! -------------------------------------------------------------------- !

! -------------------------------------------------------------------- !
! Define the output fields to postprocess via POINT_NML namelist
! -------------------------------------------------------------------- !
&POINT_NML
  POINT%TIMESTART        =  '20210401 000000'
  POINT%TIMESTRIDE       =  '10800.'
  POINT%TIMECOUNT        =  '10'
  POINT%BUFFER           =  1
  POINT%TYPE             =  2
/

! -------------------------------------------------------------------- !
! Define the content of the output file via FILE_NML namelist
! -------------------------------------------------------------------- !
&FILE_NML
  FILE%NETCDF        = 4
/

! -------------------------------------------------------------------- !
! Define the type 0, inventory of file
! -------------------------------------------------------------------- !


! -------------------------------------------------------------------- !
! Define the type 1, spectra via SPECTRA_NML namelist
! -------------------------------------------------------------------- !
&SPECTRA_NML
/

! -------------------------------------------------------------------- !
! Define the type 2, mean parameter via PARAM_NML namelist
! -------------------------------------------------------------------- !
&PARAM_NML
  PARAM%OUTPUT        = 2
/

! -------------------------------------------------------------------- !
! Define the type 3, source terms via SOURCE_NML namelist
! -------------------------------------------------------------------- !
&SOURCE_NML
/

! -------------------------------------------------------------------- !
! WAVEWATCH III - end of namelist                                      !
! -------------------------------------------------------------------- !
