! -------------------------------------------------------------------- !
! WAVEWATCH III - ww3_grid.nml - Grid pre-processing                   !
! -------------------------------------------------------------------- !

! -------------------------------------------------------------------- !
! Define the spectrum parameterization via SPECTRUM_NML namelist
! -------------------------------------------------------------------- !
&SPECTRUM_NML
  SPECTRUM%XFR       =  1.07
  SPECTRUM%FREQ1     =  0.035
  SPECTRUM%NK        =  50
  SPECTRUM%NTH       =  36
  SPECTRUM%THOFF     =  0.5
/

! -------------------------------------------------------------------- !
! Define the run parameterization via RUN_NML namelist
! -------------------------------------------------------------------- !
&RUN_NML
  RUN%FLCX         =  T
  RUN%FLCY         =  T
  RUN%FLCTH        =  T
  RUN%FLCK         =  T
  RUN%FLSOU        =  T
/

! -------------------------------------------------------------------- !
! Define the timesteps parameterization via TIMESTEPS_NML namelist
! -------------------------------------------------------------------- !
&TIMESTEPS_NML
  TIMESTEPS%DTMAX        =  1800.
  TIMESTEPS%DTXY         =  450.
  TIMESTEPS%DTKTH        =  900.
  TIMESTEPS%DTMIN        =  30.
/

! -------------------------------------------------------------------- !
! Define the grid to preprocess via GRID_NML namelist
! -------------------------------------------------------------------- !
&GRID_NML
  GRID%NAME         =  'GFSv16-wave Global 1/4 extended grid'
  GRID%NML          =  '../input/namelists_glo_15mxt.nml'
  GRID%TYPE         =  'RECT'
  GRID%COORD        =  'SPHE'
  GRID%CLOS         =  'SMPL'
  GRID%ZLIM         =  -0.1
  GRID%DMIN         =  2.50
/

! -------------------------------------------------------------------- !
! Define the rectilinear grid type via RECT_NML namelist
! -------------------------------------------------------------------- !
&RECT_NML
  RECT%NX           =  1440
  RECT%NY           =  721
  RECT%SX           =  0.25
  RECT%SY           =  0.25
  RECT%Y0           =  -90.0
/

! -------------------------------------------------------------------- !
! Define the depth to preprocess via DEPTH_NML namelist
! -------------------------------------------------------------------- !
&DEPTH_NML
  DEPTH%SF        =  0.001
  DEPTH%FILENAME  =  '../input/glo_15mxt.bot'
/

! -------------------------------------------------------------------- !
! Define the point status map via MASK_NML namelist
! -------------------------------------------------------------------- !
&MASK_NML
  MASK%FILENAME  =  '../input/glo_15mxt.mask'
/

! -------------------------------------------------------------------- !
! Define the obstruction map via OBST_NML namelist
! -------------------------------------------------------------------- !
&OBST_NML
  OBST%SF        =  0.010
  OBST%FILENAME  =  '../input/glo_15mxt.obs'
/

! -------------------------------------------------------------------- !
! WAVEWATCH III - end of namelist                                      !
! -------------------------------------------------------------------- !
