$ WAVEWATCH III Grid output post-processing
$ -----------------------------------------
  19680607 000000 86400. 999
$
  N
  DPT CUR HS 
$
 3 0
$
  1 999 1 999 1 1
