$ WAVEWATCH III shell input file
$ ------------------------------
   F T
   F T
   T T
   F
   F
   F
   F
$
   19680228 000000
   19680301 000000
$
   1
$
   19680228 000000  86400  19680301 000000
$
 N
 HS
$
   19680228 000000      0  19680301 000000
   19680228 000000      0  19680301 000000
   19680228 000000      0  19680301 000000
   19680228 000000      0  19680301 000000
   19680228 000000      0  19680301 000000
$
   'WND' 19680228 000000    6.   128.  0.
   'STP'
$
