! -------------------------------------------------------------------- !
! WAVEWATCH III ww3_ounf.nml - Grid output post-processing             !
! -------------------------------------------------------------------- !

! -------------------------------------------------------------------- !
! Define the output fields to postprocess via FIELD_NML namelist
! -------------------------------------------------------------------- !
&FIELD_NML
  FIELD%TIMESTART        =  '19680228 000000'
  FIELD%TIMESTRIDE       =  '86400'
  FIELD%TIMECOUNT        =  '99'
  FIELD%LIST             =  'HS'
/

! -------------------------------------------------------------------- !
! Define the content of the output file via FILE_NML namelist
! -------------------------------------------------------------------- !
&FILE_NML
  FILE%IX0           = 2
  FILE%IXN           = 2
  FILE%IY0           = 2
  FILE%IYN           = 2
/

! -------------------------------------------------------------------- !
! WAVEWATCH III - end of namelist                                      !
! -------------------------------------------------------------------- !
