$ WAVEWATCH III Initial conditions input file
$ -------------------------------------------
$ Spectral grid: 1.10 0.0347 32 36 0.5
$ ITYPE = 4 -- user definded spectrum F(f,theta)
$ U10,UDIR,HS,DIR,FP,QP = 5.98m s-1 128.1deg 1.89m 150.4deg 0.0849Hz 1.394
$ PART. 0: HS,TP,DIR = 1.77m 1 142eg
$ PART. 1: HS,TP,DIR = 0.48m 1 215eg
$ PART. 2: HS,TP,DIR = 0.46m 7 218eg
 4
 0.0
 3.4656872e-10  5.3617562e-08  5.5510318e-06  4.0496141e-04  5.6677330e-03  3.4468323e-02  1.1456734e-02  1.2244309e-02  9.4532603e-03  2.3022726e-02  1.4082973e-02  6.7626372e-02  4.1647919e-02  5.8256846e-02  1.3999003e-01  3.1056023e-01  4.3494570e-01  3.4193361e-01  2.2385013e-01  1.4882421e-01  9.6881658e-02  6.6197328e-02  4.7751117e-02  3.3114668e-02  2.2624839e-02  1.5499644e-02  1.0394566e-02  6.9591003e-03  4.7515417e-03  3.2526101e-03  2.2217254e-03  1.5130206e-03 
 8.5975622e-11  1.0933919e-08  2.9444150e-06  3.2586488e-04  8.3286874e-03  5.1433466e-02  1.5595458e-02  3.5638928e-02  1.2303863e-01  8.5783809e-01  7.2696191e-01  1.0150232e+00  5.5978644e-01  4.4972908e-01  4.7626275e-01  5.1937389e-01  5.2969766e-01  4.4621545e-01  3.0085206e-01  1.8540274e-01  1.1414018e-01  7.4205562e-02  5.1795397e-02  3.6095098e-02  2.4509914e-02  1.6891265e-02  1.1897530e-02  8.4069557e-03  5.8793239e-03  4.0304894e-03  2.7210517e-03  1.8260386e-03 
 2.1045285e-10  9.4176755e-10  2.9343164e-07  1.1955093e-04  1.7439831e-02  2.8067589e-01  2.6785088e-01  5.2418703e-01  2.3448720e+00  3.6634574e+00  2.9453812e+00  2.4414101e+00  1.5568509e+00  7.4804586e-01  5.8935523e-01  5.9456229e-01  6.2258333e-01  5.3981096e-01  3.6365283e-01  2.0869653e-01  1.2819451e-01  8.1414908e-02  5.5120021e-02  3.8978331e-02  2.7839165e-02  1.9629128e-02  1.3980614e-02  9.8509453e-03  6.8331948e-03  4.6435790e-03  3.1108905e-03  2.0598129e-03 
 4.9093374e-10  3.7760230e-09  1.6705526e-07  1.1903087e-04  2.1583866e-02  8.1054723e-01  1.2674494e+00  2.1959660e+00  6.0521774e+00  4.4130545e+00  3.5334492e+00  2.7526555e+00  2.0861695e+00  9.5746481e-01  6.5808201e-01  5.9404325e-01  5.8829111e-01  5.0562203e-01  3.3746380e-01  2.0159721e-01  1.3455749e-01  8.8838860e-02  5.9800774e-02  4.2662516e-02  3.1071780e-02  2.2053985e-02  1.5648179e-02  1.0962604e-02  7.5424099e-03  5.0797826e-03  3.3754185e-03  2.2036717e-03 
 3.1007125e-10  4.9579780e-09  9.4447927e-07  2.1034645e-04  7.7247764e-03  5.0725269e-01  1.4985381e+00  2.1839995e+00  3.1409645e+00  4.1095943e+00  3.6633821e+00  2.9350462e+00  1.9006779e+00  7.8937209e-01  5.0660706e-01  4.1810057e-01  3.8078547e-01  3.7327620e-01  2.7425963e-01  1.8099880e-01  1.2944433e-01  9.2680454e-02  6.4303368e-02  4.5764156e-02  3.3101622e-02  2.3637645e-02  1.6732685e-02  1.1684541e-02  7.9751275e-03  5.2796714e-03  3.4566163e-03  2.2352426e-03 
 7.2402145e-12  6.4103567e-09  3.4513923e-06  2.6401741e-04  8.6452917e-04  5.7971813e-03  6.6000357e-02  1.3073207e-01  4.8704764e-01  2.4507670e+00  3.6930103e+00  2.4735250e+00  1.1215655e+00  4.6602359e-01  3.1395012e-01  2.5041431e-01  2.0134440e-01  2.4540383e-01  2.2866599e-01  1.6317818e-01  1.1931450e-01  8.9903295e-02  6.7536667e-02  4.7812797e-02  3.4311339e-02  2.4289731e-02  1.7037969e-02  1.1789965e-02  8.0265049e-03  5.2662594e-03  3.4206205e-03  2.2066371e-03 
 2.8640458e-11  1.5099131e-08  5.6433055e-06  1.1149590e-04  9.4027619e-04  8.4169917e-03  7.6222126e-03  1.3038188e-01  2.8071862e-01  6.1509764e-01  1.0620489e+00  1.5211523e+00  8.9985341e-01  3.8978899e-01  2.5199449e-01  1.6007465e-01  1.0516737e-01  1.3361335e-01  1.7723280e-01  1.4822856e-01  1.1125323e-01  8.6403549e-02  6.8080470e-02  4.8341129e-02  3.4284383e-02  2.4142027e-02  1.6585706e-02  1.1303791e-02  7.6806862e-03  5.0722193e-03  3.3163261e-03  2.1552076e-03 
 7.5352077e-12  9.8951123e-09  1.6645506e-06  6.6271692e-05  2.6168197e-04  1.6667154e-03  4.1287546e-03  2.5062577e-03  2.1365378e-02  1.5522286e-01  1.9447243e-01  1.5565276e-01  1.6766286e-01  1.6912225e-01  1.3604525e-01  8.6060457e-02  5.6593928e-02  6.2732369e-02  1.0299122e-01  1.3501558e-01  1.0701787e-01  8.3788045e-02  6.4798087e-02  4.6573468e-02  3.2614443e-02  2.2984017e-02  1.5644506e-02  1.0539083e-02  7.0900330e-03  4.6924483e-03  3.0932904e-03  2.0378814e-03 
 1.0040365e-12  2.2422719e-09  2.5189576e-07  7.2807197e-06  3.1878826e-05  2.5157278e-04  7.9576549e-04  2.5034028e-03  1.8835047e-03  2.5988661e-03  5.1073595e-03  7.1522128e-03  1.2329847e-02  1.4983562e-02  1.9407276e-02  1.8061820e-02  1.9715499e-02  2.3127832e-02  3.9515954e-02  8.9319631e-02  1.0043963e-01  7.8606382e-02  6.0897931e-02  4.3419495e-02  2.9692657e-02  2.0445097e-02  1.4090415e-02  9.5397197e-03  6.4055324e-03  4.2407503e-03  2.7966753e-03  1.8478847e-03 
 3.4390936e-13  1.0529004e-10  7.4716139e-10  7.1558626e-10  2.5393806e-08  5.0109611e-07  7.1323106e-05  3.9127827e-04  9.5185975e-04  3.6289673e-03  1.6489400e-02  1.5271336e-02  1.4704324e-02  6.7255702e-03  6.0202004e-03  4.0549766e-03  5.2032336e-03  7.7908924e-03  1.3420912e-02  3.6278822e-02  7.6186508e-02  6.7972682e-02  5.3085282e-02  3.9494529e-02  2.7291976e-02  1.8016858e-02  1.2028644e-02  8.1086550e-03  5.4978039e-03  3.6936780e-03  2.4564639e-03  1.6233516e-03 
 5.3683251e-13  6.4181507e-11  1.8422018e-10  4.1832260e-10  1.9098909e-08  2.9454819e-07  4.9877544e-06  1.8272144e-04  2.5565112e-03  1.3384066e-02  4.2993642e-02  3.3039145e-02  3.1142186e-02  2.0227864e-02  2.5687136e-02  7.9410709e-03  4.0865401e-03  5.1084524e-03  8.8750497e-03  1.9310893e-02  4.2960074e-02  5.4326698e-02  4.1121535e-02  3.1948444e-02  2.3221929e-02  1.5978720e-02  1.0845928e-02  7.1920264e-03  4.6615480e-03  3.0203960e-03  2.0009042e-03  1.3331333e-03 
 6.6991378e-13  7.9520314e-11  7.4929163e-10  7.7635132e-10  5.6741820e-09  2.9950108e-08  8.1724352e-07  3.7276222e-05  3.3610320e-04  7.4670429e-04  2.1499072e-04  9.8452321e-04  1.3862010e-03  2.7418362e-03  3.3457289e-03  1.3987173e-03  1.3869889e-03  3.2272814e-03  6.2931571e-03  1.0668539e-02  1.7887220e-02  2.9353183e-02  2.8426893e-02  2.2445252e-02  1.7600287e-02  1.2849257e-02  9.1739167e-03  6.3640727e-03  4.2405399e-03  2.7093119e-03  1.7177726e-03  1.0800263e-03 
 1.5252808e-13  1.1331040e-11  7.2797150e-11  8.6524782e-10  8.5281178e-09  4.9283841e-08  2.7647152e-07  3.1077113e-06  2.0919899e-05  6.4892600e-05  2.0823022e-04  7.3509972e-04  1.0392757e-03  1.3913326e-03  6.9975713e-04  4.4299776e-04  3.8456442e-04  1.4034371e-03  3.0016406e-03  4.5043090e-03  6.7004613e-03  1.0549942e-02  1.3356404e-02  1.2179254e-02  1.0923689e-02  8.9445412e-03  6.8441080e-03  5.0320462e-03  3.5496298e-03  2.3479690e-03  1.5092746e-03  9.3661225e-04 
 6.2208661e-14  9.7689530e-14  6.0933306e-13  2.0565934e-11  1.6596580e-10  1.2954067e-09  1.6445929e-09  1.9028039e-09  1.4088917e-09  5.4281530e-09  2.4854563e-07  2.1474084e-07  2.3513874e-07  6.9457906e-07  3.9532082e-07  2.8812130e-06  3.8456084e-05  3.7877014e-04  1.1383838e-03  1.7021737e-03  2.4873414e-03  3.6202902e-03  4.4927518e-03  4.7200145e-03  4.7667208e-03  4.6681920e-03  4.0473775e-03  3.2736529e-03  2.4864688e-03  1.7359443e-03  1.1627892e-03  7.4115710e-04 
 5.7117993e-14  3.2970528e-13  5.9513450e-11  2.9413758e-09  4.1434241e-08  1.5573128e-06  2.6096525e-06  6.9527250e-06  1.5639325e-05  2.0756479e-04  1.3695601e-03  1.9946429e-03  1.4891851e-03  1.5534521e-03  9.3947211e-04  3.1692890e-04  2.0152758e-04  1.9535961e-04  4.1399381e-04  6.1490980e-04  8.3684118e-04  1.2122735e-03  1.4865240e-03  1.6369222e-03  1.6414102e-03  1.6548410e-03  1.6045477e-03  1.4826823e-03  1.2555723e-03  9.6070691e-04  6.9035211e-04  4.6157814e-04 
 5.9332678e-12  7.0032799e-11  4.7550515e-09  2.0013465e-07  2.2532643e-06  4.4325730e-05  4.1350577e-05  1.5075921e-04  2.4277393e-03  2.7064377e-02  1.1916302e-01  8.4063098e-02  2.3818364e-02  1.3568403e-02  9.1984980e-03  5.1375376e-03  2.5563943e-03  1.3938696e-03  8.3839556e-04  4.5544180e-04  2.8629988e-04  3.5989034e-04  4.6390027e-04  5.2691408e-04  5.2780396e-04  4.8793340e-04  4.2392226e-04  3.8817231e-04  3.4977985e-04  3.0635254e-04  2.4921558e-04  1.8294639e-04 
 7.1345652e-11  3.8286757e-10  1.9627677e-08  7.3145083e-07  7.0669166e-06  6.3959029e-05  5.2701173e-05  5.5510888e-04  9.7202212e-03  7.7723876e-02  1.3490671e-01  3.9297178e-02  9.7570680e-03  6.2860250e-03  4.2948490e-03  4.2473841e-03  3.6112072e-03  1.2116790e-03  4.9334241e-04  1.6176623e-04  6.5825850e-05  7.3814277e-05  1.1102846e-04  1.3881538e-04  1.4543356e-04  1.3092831e-04  9.6637596e-05  6.9970709e-05  5.2277064e-05  4.4999131e-05  3.9461891e-05  3.2361891e-05 
 3.1360090e-10  2.3517882e-10  6.1160126e-09  2.1862223e-07  1.7161885e-06  7.5910939e-06  8.6731641e-05  1.3582237e-03  4.1432511e-03  9.8250424e-03  4.3874085e-03  9.9274833e-03  6.2045455e-03  8.9074131e-03  1.0843529e-02  2.9309280e-02  6.0993470e-03  1.0789986e-03  3.2459345e-04  5.4114455e-05  9.0977082e-06  8.6455148e-06  1.5837357e-05  2.3498655e-05  2.8057691e-05  2.7583257e-05  2.0637854e-05  1.3176072e-05  7.4429418e-06  4.4079252e-06  3.0335757e-06  2.3866023e-06 
 3.6331133e-11  6.2768957e-11  2.2280906e-10  3.4562226e-09  1.7951098e-08  1.5296946e-06  7.4054245e-05  2.9568700e-04  1.6198552e-04  1.8816520e-04  4.8738104e-05  1.6734384e-03  1.8257271e-02  5.4082526e-03  4.2119464e-03  4.3195579e-03  1.3555400e-03  5.7895290e-04  1.2379581e-04  1.3872734e-05  1.7392920e-06  8.1406972e-07  1.1584196e-06  1.8463843e-06  2.7026031e-06  3.2111884e-06  2.8654886e-06  2.0496282e-06  1.1815523e-06  5.7462233e-07  2.8210394e-07  1.4588943e-07 
 5.1233102e-12  1.0883854e-10  2.5416774e-10  1.2637221e-09  4.8039102e-09  2.5493739e-07  6.4712494e-06  7.8600533e-06  9.8642868e-06  1.9609852e-05  2.4360219e-05  2.4754616e-05  1.0873780e-03  9.9761726e-04  3.4404543e-04  4.8214191e-05  2.0010024e-05  2.5276753e-05  8.4936892e-06  1.0787376e-06  1.7786351e-07  8.8808051e-08  7.1487698e-08  6.2453068e-08  8.0722799e-08  1.0931289e-07  1.3002290e-07  1.2126452e-07  8.5910557e-08  4.2447624e-08  2.0557787e-08  9.8836779e-09 
 1.1753774e-12  3.5287138e-11  1.6361634e-10  9.5090469e-10  2.3954869e-09  8.2360785e-09  2.7359684e-07  1.7429731e-05  3.3421915e-05  6.8985195e-05  2.9762954e-04  1.0916146e-04  3.7379476e-04  1.4845899e-04  1.0895281e-05  1.7918614e-05  5.0133858e-05  6.1947485e-06  4.1373832e-07  3.6703362e-08  2.1951454e-08  9.4103410e-09  4.3012789e-09  1.5108526e-09  8.6684071e-10  8.2681606e-10  9.8525577e-10  1.0823988e-09  9.7748964e-10  4.9871030e-10  2.4766517e-10  1.2111567e-10 
 2.4857904e-13  1.3508565e-12  6.9366119e-12  4.1949531e-11  2.3902436e-10  6.1941101e-09  2.3203279e-07  1.4145811e-05  6.0864771e-04  2.2246838e-03  4.1952431e-03  1.4004821e-02  2.3169998e-02  1.4481596e-02  9.4053632e-04  7.5969088e-04  1.0825061e-05  4.4258201e-07  3.3805785e-09  3.4402228e-09  4.4652286e-09  2.0003346e-09  8.6669044e-10  1.1450933e-10  8.4262770e-12  3.4809950e-12  2.0336723e-12  1.3488082e-12  1.1270955e-12  5.9136219e-13  2.9925156e-13  1.4819526e-13 
 1.3444820e-11  2.3762833e-10  2.3727778e-10  2.5696960e-09  1.6081305e-08  3.4689535e-07  1.3004470e-05  1.5468983e-04  2.7224133e-03  1.1786178e-02  7.9325447e-03  8.0892202e-03  1.4172921e-02  6.5851281e-03  4.8684754e-04  4.9572915e-04  2.2122948e-04  6.4195879e-06  2.0074943e-07  3.2417211e-09  4.7113635e-10  1.0939659e-09  4.5214835e-10  2.8293611e-11  4.3664670e-13  8.1810589e-14  2.8400046e-14  8.1720858e-15  1.5069402e-15  5.3701095e-16  2.3582594e-16  1.1123170e-16 
 6.7527456e-11  3.6527930e-09  4.7977206e-08  3.2100949e-08  9.3101050e-08  6.8027578e-07  4.7347880e-06  4.1962267e-05  9.7804202e-04  2.8221840e-03  2.0612502e-03  1.4788262e-03  1.6916610e-03  2.5470066e-03  3.2365447e-04  8.9733046e-05  8.4598476e-05  2.9965495e-06  6.8608735e-08  8.5828300e-10  4.3975273e-10  3.8175835e-10  2.2834550e-10  6.7012840e-11  5.6249026e-11  3.6822156e-11  1.7762805e-11  5.4447679e-12  1.0323088e-12  4.3206411e-13  1.9521904e-13  9.2513684e-14 
 6.3072443e-11  3.2392755e-09  4.4625665e-08  2.4199156e-08  8.3788720e-08  4.8877411e-07  1.3552551e-06  1.5001593e-06  1.8600696e-05  8.6934979e-06  9.9198205e-06  1.4943399e-07  1.2561962e-08  7.4619580e-05  9.9588706e-06  1.9624569e-09  1.5665198e-06  7.5424488e-08  8.3893035e-09  1.0528792e-08  1.6305988e-08  2.2872566e-08  2.9165905e-08  3.0165737e-08  2.2674577e-08  1.1763875e-08  4.5146153e-09  1.2388526e-09  2.5342103e-10  1.0705765e-10  5.0429449e-11  2.4429934e-11 
 1.4967201e-10  8.3461886e-09  1.4366942e-07  2.8613670e-07  2.8401123e-06  1.4424400e-05  3.3170058e-05  2.3211815e-05  2.6473830e-05  3.5707046e-05  1.4291565e-05  1.1732180e-05  4.0972932e-06  2.4943852e-06  9.0462777e-07  4.3574593e-07  1.6398756e-07  1.4416923e-07  3.5975495e-07  7.3141064e-07  1.1043091e-06  1.3692501e-06  1.3816351e-06  1.1174461e-06  7.0912051e-07  3.4553224e-07  1.3558436e-07  4.5692332e-08  1.5461218e-08  8.6545517e-09  4.5686601e-09  2.1714777e-09 
 1.0198775e-10  4.7978927e-09  7.6742793e-08  7.9601523e-07  1.7751485e-05  3.8755657e-05  7.5754244e-05  1.6769429e-05  1.1822070e-05  1.6584105e-05  1.1026284e-05  7.7634286e-06  3.1981606e-06  2.5636878e-06  9.3755585e-07  4.6696630e-07  2.8949103e-07  2.2088675e-06  7.1005843e-06  1.2764403e-05  1.7650927e-05  1.9620351e-05  1.6752902e-05  1.1459371e-05  6.8976178e-06  3.8544213e-06  2.1864016e-06  1.3489487e-06  8.7520635e-07  5.5801291e-07  2.8568775e-07  1.2470346e-07 
 7.9651355e-11  6.7358972e-09  1.8060811e-07  9.6915082e-06  2.3737522e-04  5.5434753e-04  2.2434136e-03  6.1560329e-04  4.9493776e-04  6.9131237e-04  8.6476665e-04  1.0161987e-03  2.8598937e-03  1.1042859e-03  1.1854495e-03  1.8272788e-04  9.7628246e-05  7.6392695e-05  7.8939382e-05  1.0831292e-04  1.3433564e-04  1.3978999e-04  1.1603453e-04  8.4719439e-05  6.3255022e-05  5.0019640e-05  4.0200459e-05  2.9500296e-05  1.9186664e-05  1.1307332e-05  5.5700621e-06  2.4330202e-06 
 9.3878690e-12  1.0432852e-09  7.4450988e-08  2.4094084e-06  2.2636646e-05  5.3205393e-05  2.5563955e-04  9.1978058e-05  8.2805898e-05  1.1626170e-04  8.1581512e-04  1.0021178e-03  1.0326478e-03  3.9858674e-04  2.6989239e-04  1.3483464e-04  1.2258405e-04  1.6818462e-04  5.2806211e-04  6.7619351e-04  7.4868154e-04  8.0946356e-04  7.5168622e-04  6.5554061e-04  5.6436972e-04  4.7035652e-04  3.6666967e-04  2.5326165e-04  1.5476346e-04  8.7637338e-05  4.3933760e-05  2.0238973e-05 
 5.3382708e-11  6.6115535e-09  8.6611226e-07  1.8714451e-05  8.9384077e-05  1.8912141e-04  2.0642369e-03  1.0366332e-03  8.1671099e-04  2.1444437e-04  6.7245355e-04  9.9054712e-04  3.2333550e-03  1.8861479e-03  1.3565035e-03  2.5940713e-04  4.0057609e-03  6.1491001e-03  4.7656684e-03  3.7785582e-03  3.7206775e-03  3.9742179e-03  3.7024620e-03  3.2816685e-03  2.6675621e-03  2.0043505e-03  1.4010910e-03  9.0696826e-04  5.4281281e-04  3.1259184e-04  1.6887770e-04  8.5199863e-05 
 8.1318606e-12  1.3611126e-09  2.1763609e-07  4.6766540e-06  5.7706544e-05  7.6814023e-05  1.9896356e-04  3.4293777e-04  3.6022440e-04  4.0349267e-05  9.2688743e-03  1.4093378e-01  5.5282697e-02  1.9528725e-03  1.4936910e-03  8.3346471e-02  5.6409106e-02  2.6113832e-02  1.5923113e-02  1.2654407e-02  1.2229951e-02  1.2206811e-02  1.0690127e-02  8.7046726e-03  6.3827359e-03  4.3320432e-03  2.8218287e-03  1.8038445e-03  1.1177277e-03  6.7845616e-04  3.9698501e-04  2.1608836e-04 
 3.6327427e-11  4.8719009e-08  2.1611148e-05  3.0366774e-04  7.2079577e-04  2.3808222e-02  5.1319242e-01  7.3975873e-01  5.7569659e-01  2.8054935e-01  2.0009850e-01  1.7221752e-01  5.9314806e-02  7.1398866e-01  5.7935226e-01  3.1770462e-01  1.4029369e-01  6.0958304e-02  3.8721811e-02  3.1490494e-02  2.8506741e-02  2.5956783e-02  2.0137865e-02  1.4683492e-02  1.0033434e-02  6.5823314e-03  4.3067457e-03  2.8285610e-03  1.8177798e-03  1.1278542e-03  6.8231614e-04  3.8771966e-04 
 2.5325884e-09  1.5048736e-06  4.7678608e-04  3.8764554e-03  3.9458857e-03  8.5041843e-02  2.1200852e+00  2.4640102e+00  1.3439357e+00  3.8935670e-01  3.4065381e-01  2.0831972e-01  8.8696465e-02  4.9762321e-01  6.6472775e-01  4.9070469e-01  2.3192263e-01  1.4043875e-01  9.6375003e-02  6.4619638e-02  4.8638605e-02  3.7873533e-02  2.7182495e-02  1.9245133e-02  1.3276502e-02  8.9094779e-03  5.9583299e-03  3.9417930e-03  2.5377325e-03  1.5669386e-03  9.6317148e-04  5.7039119e-04 
 1.3446662e-09  1.1353945e-06  2.3753602e-04  2.0689033e-03  2.6591020e-02  4.7348514e-02  8.0373544e-01  6.8671513e-01  3.8545904e-01  1.5388671e-01  1.1742350e-01  1.0052034e-01  3.2595605e-02  6.1434627e-02  2.4335682e-01  3.1559548e-01  2.5782478e-01  2.1554187e-01  1.4672770e-01  8.7433465e-02  5.9326887e-02  4.3972783e-02  3.2531615e-02  2.3712201e-02  1.6690260e-02  1.1233231e-02  7.4189627e-03  4.8702685e-03  3.1488007e-03  1.9582252e-03  1.2209774e-03  7.4791478e-04 
 2.5060293e-10  7.9305138e-08  7.8220219e-06  3.8885334e-04  1.2956260e-02  3.4177275e-03  1.0121481e-02  3.1865712e-03  4.0536276e-03  3.2452475e-03  7.5883856e-03  8.5630575e-03  9.6532302e-03  6.8903506e-02  1.4028235e-01  1.8698202e-01  2.8705198e-01  2.3469260e-01  1.5293723e-01  1.0037652e-01  6.7986503e-02  5.0547138e-02  3.8330782e-02  2.7771460e-02  1.9304376e-02  1.2970338e-02  8.5135195e-03  5.5912398e-03  3.6533533e-03  2.3051593e-03  1.4576167e-03  9.2182896e-04 
 2.5134131e-11  1.6610308e-08  2.1779776e-06  1.0046641e-04  5.7445420e-04  1.3361064e-03  3.0726469e-03  3.5723951e-03  3.7305751e-03  3.4696977e-03  3.1180535e-03  5.2349460e-03  9.7212512e-03  2.4001207e-02  6.5375313e-02  1.8134753e-01  3.4960151e-01  2.6439470e-01  1.7495602e-01  1.2037574e-01  8.1043020e-02  5.8185950e-02  4.3335266e-02  3.0446887e-02  2.0952258e-02  1.4311092e-02  9.5048845e-03  6.2484881e-03  4.1092490e-03  2.6540784e-03  1.7316678e-03  1.1492297e-03 
$