#!/bin/sh
#############################################################################
#                                                                           #
# mww3_case_03 : Test case for NCEP operational models.                     #
#                                                                           #
# Model should be compiled with the switches :                              #
#                                                                           #
#   !/LLG                Sperical grid.                                     #
#                                                                           #
#   All other model setting as desired.                                     #
#                                                                           #
# Grids generated in this test :                                            #
#                                                                           #
#  glo_30m : Global 30 minute resolution grid.                              #
#  at_10m  : Atlantic offshore 10 minute grid.                              #
#  wc_10m  : West Coast offshore 10 minute grid.                            #
#  ep_10m  : Eastern Pacific offshore 10 minute grid.                       #
#  ak_10m  : Alaska offshore 10 minute grid.                                #
#  at_4m   : Atlantic coastal 4 minute grid.                                #
#  wc_4m   : West Coast coastal 4 minute grid.                              #
#  ak_4m   : Alaska coastal 4 minute grid.                                  #
#                                                                           #
# Remarks:                                                                  #
#                                                                           #
# - In order to run this case, the following directories need to be         #
#   unpacked in the test directory                                          #
#     mww3_data_00 : General input data for all realistic test cases.       #
#     mww3_data_03 : Grid setup for this test case.                         #
#   After installation of WAVEWATCH III these directories are provided      #
#   as compressed tar files, but are not unpacked to save disk space.       #
# - Restart files are saved in the mww3_data_01 directory for use in other  #
#   runs. CLeaned up by arc_wwatch3 only.                                   #
# - Script set up for parallel running :                                    #
#    a) For cluster with mpirun activate mpirun command lines and set       #
#       environment with valiables MPI and proc in section 0.               #
#    b) For IBM with poe, activale poe command lines and set environment    #
#       variables in poe jobcards at the top of the scripts.                #
#                                                                           #
#                                              Hendrik Tolman, Dec 2006     #
#                                                   Last Mod : Jul 2007     #
#                                                                           #
#    Copyright 2009 National Weather Service (NWS),                         #
#       National Oceanic and Atmospheric Administration.  All rights        #
#       reserved.  WAVEWATCH III is a trademark of the NWS.                 #
#       No unauthorized use without permission.                             #
#                                                                           #
#############################################################################

#@ shell=/bin/sh
#@ job_name=mww3_case_03
#@ output=mww3_case_03.out
#@ error=mww3_case_03.out
#@ notification=never
#@ class=dev
#@ network.MPI=csss,shared,us
#@ total_tasks=288
#@ node=9
#@ job_type=parallel
#@ wall_clock_limit=03:00:00
#@ node_usage=not_shared
#@ account_no=WAV-T2O
#@ queue

# 0. Preparations -----------------------------------------------------------

# set -e

  ww3_env='.wwatch3.env'   # setup file

# 0.a Define model input

   wind='gfs_1d'
#  wind='no'
    ice='icean_5m'
#   ice='no'

# 0.b Define model grids

#  mods='glo_30m'
#  mods='glo_30m at_10m ak_10m wc_10m ep_10m'
   mods='glo_30m at_10m ak_10m wc_10m ep_10m at_4m wc_4m ak_4m'

     NR=`echo $mods | wc -w | awk '{print $1}'`

# 0.c Set initial conditions

# itype=1 ; Hini='10.0'    # Set initial swell
# itype=3                  # Initialize by wind
  itype=5                  # Start from calm conditions

# 0.d Set output
#     buoy locations

    dtb='3600' ; UPTS=T ; buoys='points'
#   dtb='   0' ; UPTS=F ; buoys='no'

#     partitioning

#   dtp='10800' ; PT=' '
    dtp='   0' ; PT='$'

# 0.e Set run times
#     undefined t_rst will give no restart file

  t_beg='20060101 000000' ; t_end='20060102 000000' ; t_rst=$t_end
     dt='3600' ;    tn='25'

# t_beg='20060104 000000' ; t_end='20060104 030000' ; t_rst=
#    dt='3600' ;    tn='7'

# t_beg='20060101 000000' ; t_end='20060108 000000' ; t_rst=$t_end
#    dt='3600' ;    tn='169'

# t_beg='20060108 000000' ; t_end='20060116 000000' ; t_rst=$t_end
#    dt='3600' ;    tn='193'

# t_beg='20060116 000000' ; t_end='20060124 000000' ; t_rst=$t_end
#    dt='3600' ;    tn='193'

# t_beg='20060124 000000' ; t_end='20060201 000000' ; t_rst=
#    dt='3600' ;    tn='193'

# t_beg='20060101 000000' ; t_end='20060201 000000' ; t_rst=
#    dt='86400' ;    tn='32'

  if [ -z "$t_rst" ]
  then
    dte='   0'
    t_rst=$t_end
  else
    dte='   1'
  fi

   fstID=`echo $t_beg | sed 's/ /\./g'`
   rstID=`echo $t_rst | sed 's/ /\./g'`

# 0.f Parallel environment

    MPI='yes'              # run ww3_multi in MPI mode
   proc=20

# 0.g Set-up variables

  cd
  if [ -f $ww3_env ]
  then
    set `grep WWATCH3_DIR $ww3_env` ; shift
    main_dir="$*"
    set `grep WWATCH3_TMP $ww3_env` ; shift
    temp_dir="$*"
  else
    echo "*** Set-up file $ww3_env not found ***"
    exit 1
  fi

  path_w="$temp_dir"              # work directory
# path_w="$temp_dir/mww3_case_03" # work directory
  path_e="$main_dir/exe"          # path for executables
  path_a="$main_dir/aux"          # path for aux files and scripts
  path_t="$main_dir/test"         # path for test directory
  path_d="$path_t/mww3_data_03"   # path for data directory
  path_i="$path_t/mww3_data_00"   # path for data directory
  path_o="$main_dir/work"         # path for output files

# 0.h Clean-up

  mkdir -p $path_w
  mkdir -p $path_o
  cd $path_w

  echo ' ' ; echo ' '
  echo '                  ======> TEST RUN WAVEWATCH III <====== '
  echo '                    ==================================   '
  echo '                              NCEP global suite test case'
  echo ' '

# 1. Grid pre-processor -----------------------------------------------------

  echo ' '
  echo '+--------------------+'
  echo '|  Grid preprocessor |'
  echo '+--------------------+'
  echo ' '

  rm -f mod_def.*

  cp $path_d/ww3_grid.inp.* .
  cp $path_d/*.bot .
  cp $path_d/*.mask .
  cp $path_d/*.obst .
  cp $path_i/ww3_grid.inp.* .
  cp $path_i/*.mask .

  for mod in $mods $wind $ice $buoys
  do
    if [ "$mod" != 'no' ]
    then
      mv ww3_grid.inp.$mod ww3_grid.inp

      echo "   Screen ouput routed to $path_o/ww3_grid.$mod.out"
      $path_e/ww3_grid > $path_o/ww3_grid.$mod.out

      rm -f ww3_grid.inp mapsta.ww3 mask.ww3
      mv mod_def.ww3 mod_def.$mod
    fi
  done

  rm -f *.bot *.mask *.obst ww3_grid.inp.*

# 2. Initial conditions -----------------------------------------------------

  echo ' '
  echo '+--------------------+'
  echo '| Initial conditions |'
  echo '+--------------------+'
  echo ' '

cat > ww3_strt.inp << EOF
$ WAVEWATCH III Initial conditions input file
$ -------------------------------------------
  $itype
   0.07 0.01  245. 5  -40.  20.  50.  10.  $Hini
EOF

  for grid in $mods
  do
    if [ -f $path_d/restart.$grid.$fstID ]
    then
      echo "   initial conditions from $path_d/restart.$grid.$fstID"
      cp $path_d/restart.$grid.$fstID restart.$grid
    else
      rm -f mod_def.ww3
      ln -fs mod_def.$grid mod_def.ww3
      echo "   Running ww3_strt for initial conditions"
      echo "   Screen ouput routed to $path_o/ww3_strt.$grid.out"
      $path_e/ww3_strt > $path_o/ww3_strt.$grid.out
      mv restart.ww3 restart.$grid
    fi
  done

  rm -f ww3_strt.inp mod_def.ww3

# 3. Input fields -----------------------------------------------------------

  echo ' '
  echo '+--------------------+'
  echo '| Input data         |'
  echo '+--------------------+'
  echo ' '

  NRI='0'

  if [ "$wind" != 'no' ]
  then
    NRI=`expr $NRI + 1`
    if [ -f $path_i/wind.$wind ]
    then
      echo "   Wind file $path_i/wind.$wind"
      ln -sf $path_i/wind.$wind .
    else
      echo '   Copy raw wind file ...'
      cp $path_i/$wind.wind.gz wind.raw.gz
      gunzip wind.raw.gz
      cp $path_i/ww3_prep.inp.$wind ww3_prep.inp
      rm -f mod_def.ww3
      ln -s mod_def.$wind mod_def.ww3

      echo "   Screen ouput routed to $path_o/ww3_prep.$wind.out"
      $path_e/ww3_prep > $path_o/ww3_prep.$wind.out
      mv wind.ww3 wind.$wind
      echo "   Copy wind.$wind to $path_i"
      cp wind.$wind $path_i/.

      rm -f wind.raw ww3_prep.inp mod_def.ww3
      echo ' '
    fi
  fi

  if [ "$ice" != 'no' ]
  then
    NRI=`expr $NRI + 1`
    if [ -f $path_i/ice.$ice ]
    then
      echo "   Ice file $path_i/ice.$ice"
      ln -sf $path_i/ice.$ice .
    else
      echo '   Copy raw ice file ...'
      cp $path_i/$ice.ice.gz ice.raw.gz
      gunzip ice.raw.gz
      cp $path_i/ww3_prep.inp.$ice ww3_prep.inp
      rm -f mod_def.ww3
      ln -s mod_def.$ice mod_def.ww3

      echo "   Screen ouput routed to $path_o/ww3_prep.$ice.out"
      $path_e/ww3_prep > $path_o/ww3_prep.$ice.out
      mv ice.ww3 ice.$ice
      echo "   Copy ice.$ice to $path_i"
      cp ice.$ice $path_i/.

      rm -f ice.raw ww3_prep.inp mod_def.ww3
      echo ' '
    fi
  fi

  rm -f wind.raw ice.raw ww3_prep.inp* mod_def.ww3

# 4. Main program -----------------------------------------------------------

  echo ' '
  echo '+--------------------+'
  echo '|    Main program    |'
  echo '+--------------------+'
  echo ' '

cat > ww3_multi.inp << EOF
$ WAVEWATCH III multi-grid input file
$ ------------------------------------
  $NR $NRI $UPTS 1 F F
$
EOF
  if [ "$wind" != 'no' ] ; then
     echo " '$wind'  F F T F F F F"   >> ww3_multi.inp ; fi
  if [ "$ice" != 'no' ] ; then
     echo " '$ice'  F F F T F F F"    >> ww3_multi.inp ; fi
  if [ "$buoys" != 'no' ] ; then
     echo " '$buoys'"                 >> ww3_multi.inp ; fi

  flg_a="'no' 'no' '$wind' '$ice' 'no' 'no' 'no'"
  flg_b="'no' 'no' '$wind' 'no'       'no' 'no' 'no'"

  for grid in $mods
  do
    case $grid in
#
     'glo_30m') echo " 'glo_30m' $flg_a  1  1  0.00 1.00  F" >> ww3_multi.inp ;;
     'glo_30C') echo " 'glo_30C' $flg_a  1  1  0.00 0.70  F" >> ww3_multi.inp ;;
     'glo_30S') echo " 'glo_30S' $flg_a  1  1  0.70 0.88  F" >> ww3_multi.inp ;;
     'glo_30N') echo " 'glo_30N' $flg_a  1  1  0.88 1.00  F" >> ww3_multi.inp ;;
#
     'us_10m' ) echo " 'us_10m'  $flg_a  2 10  0.00 1.00  F" >> ww3_multi.inp ;;
     'at_10m' ) echo " 'at_10m'  $flg_a  2 10  0.00 0.45  F" >> ww3_multi.inp ;;
     'wc_10m' ) echo " 'wc_10m'  $flg_b  2 10  0.45 0.54  F" >> ww3_multi.inp ;;
     'ep_10m' ) echo " 'ep_10m'  $flg_b  2 10  0.54 0.65  F" >> ww3_multi.inp ;;
     'ak_10m' ) echo " 'ak_10m'  $flg_a  2 10  0.65 1.00  F" >> ww3_multi.inp ;;
#
     'ak_4m'  ) echo " 'ak_4m'   $flg_a  3 20  0.00 0.48  F" >> ww3_multi.inp ;;
     'at_4m'  ) echo " 'at_4m'   $flg_a  3 20  0.48 0.78  F" >> ww3_multi.inp ;;
     'wc_4m'  ) echo " 'wc_4m'   $flg_b  3 20  0.78 1.00  F" >> ww3_multi.inp ;;
#
         *    ) echo " *** HELP *** " ; exit 2 ;;
#
    esac
  done

cat >> ww3_multi.inp << EOF
$
   $t_beg  $t_end
$
   T  F
$
   $t_beg  $dt  $t_end
$    T F T F F  T F F F F  T T F F T  T F T F F  T T F F F  F F F F F  F
     F F T F F  T F T T F  T T T T T  T F T F F  F F F F F  F F F F F  F
   $t_beg  $dtb  $t_end
EOF

  if [ "$dtb" != '   0' ]
  then
    cat $path_d/buoy.loc >> ww3_multi.inp
  fi

cat >> ww3_multi.inp << EOF
   $t_beg     0  $t_end
   $t_rst  $dte  $t_rst
   $t_beg     0  $t_end
   $t_beg  $dtp  $t_end
$PT    0 9999 1 0 9999 1 T
$
  'the_end'  0
$
  'STP'
$
$ End of input file
EOF

  echo "   Running multi-grid model ..."
# echo "   Screen output routed to $path_o/ww3_multi.out"

  if [ "$MPI" = 'yes' ]
  then
    mpirun -np $proc $path_e/ww3_multi # > $path_o/ww3_multi.out
#   poe $path_e/ww3_multi # > $path_o/ww3_multi.out
#   poe hpmcount $path_e/ww3_multi # > $path_o/ww3_multi.out
  else
    $path_e/ww3_multi # > $path_o/ww3_multi.out
  fi

  for grid in $mods
  do
    if [ -f restart1.$grid ]
    then
      echo "   Output file restart1.$grid routed to"
      echo "               $path_d/restart.$grid.$rstID"
      mv restart1.$grid $path_d/restart.$grid.$rstID
    fi
  done

  echo "   Log files routed to $path_o"
  mv log.* $path_o/.

  rm -f ww3_multi.inp
  rm -f restart.*
  rm -f wind.* ice.*

  set +e

# rm -f test*.mww3

  nr_test=`ls test* 2> /dev/null | wc -w | awk '{ print $1}'`
  if [ "$nr_test" != '0' ]
  then
    for file in `ls test* 2> /dev/null`
    do
      size=`wc -w $file | awk '{print $1}'`
      if [ "$size" = 0 ] ; then
        rm -f $file ; fi
    done
  fi

  nr_test=`ls test* 2> /dev/null | wc -w | awk '{ print $1}'`
  if [ "$nr_test" != '0' ]
  then
    echo "   Output file test[nnn].[m]ww3 routed to $path_o"
    mv test* $path_o/.
  fi

  nr_prof=`ls prf*.mww3 2> /dev/null | wc -w | awk '{ print $1}'`
  if [ "$nr_prof" != '0' ]
  then
    echo "   Profiling file prf.*.mww3 routed to $path_o"
    mv prf*.mww3 $path_o/. 2> /dev/null
  fi

  nr_part=`ls partition.* 2> /dev/null | wc -w | awk '{ print $1}'`
  if [ "$nr_part" != '0' ]
  then
    echo "   Partition file(s) partition.* routed to $path_o"
    mv partition.* $path_o/. 2> /dev/null
  fi

  rm -f prf*.mww3
  echo ' '

# exit 99

# 4. Gridded output ---------------------------------------------------------

  echo ' '
  echo '+--------------------+'
  echo '|   Gridded output   |'
  echo '+--------------------+'
  echo ' '

cat > gx_outf.inp << EOF
$ WAVEWATCH III Grid output post-processing
$ -----------------------------------------
  $t_beg  $dt  $tn
$
$ T F T F F  T F F F F  T T F F T  T F T F F  T T F F F  F F F F F  F
  F F T T T  T F T T F  T T T T T  T F T F F  T T F F F  F F F F F  F
$
  0 9999 0 9999  T F
$
$ End of input file
EOF

  for mod in $mods
  do
    echo "   GrADS data for $mod ..."
    echo "      Screen ouput routed to $path_o/gx_outf.$mod.out"
    ln -s mod_def.$mod mod_def.ww3
    ln -s out_grd.$mod out_grd.ww3

    $path_e/gx_outf > $path_o/gx_outf.$mod.out

    echo "      ww3.ctl routed to $path_o/$mod.ctl"
    sed "s/ww3\.grads/ww3\.$mod/g" ww3.ctl > $path_o/$mod.ctl
    rm -f ww3.ctl
    echo "      ww3.grads routed to $path_o/ww3.$mod"
    mv ww3.grads $path_o/ww3.$mod

    rm -f mod_def.ww3 out_grd.ww3

  done

  rm -f gx_outf.in
# rm -f out_grd.*

# 5. Point output -----------------------------------------------------------

  echo ' '
  echo '+--------------------+'
  echo '|    Point output    |'
  echo '+--------------------+'
  echo ' '
  echo '   Not wanted here'


# 6. End, cleaning up -------------------------------------------------------

  echo ' ' ; echo "Cleaning-up `pwd`"
# rm -f mod_def.* log.*

  echo ' ' ; echo ' '
  echo '                  ======>  END OF WAVEWATCH III  <====== '
  echo '                    ==================================   '
  echo ' '

# End of mww3_case_03 -------------------------------------------------------
