#!/bin/sh
#############################################################################
#                                                                           #
# ww3_tp1.1 Test script for WW-III, one-dimensional propagation.            #
#           Full global propagation along the equator.                      #
#                                                                           #
# Model should be compiled with the switches :                              #
#                                                                           #
#   !/LN0 !/ST0 !/NL0 !/BT0 !/DB0 !/TR0 !/BS0 !/XX0                         #
#                        Select the 'no source terms' option.               #
#   !/PRn                Selecting one of the propagation schemes.          #
#                         1: First order.                                   #
#                         2: Representative for all UQ schemes              #
#                         3: Switch smoothing off to reproduce 2.           #
#   !/WNX1 !/WNT1 !/CRX1 !/CRT1      Wind and current interpolation.        #
#   !/O0 !/O1 !/O2 !/O3 !/O4 !/O5 !/O6 !/O7   Sdt out output options.       #
#                                                                           #
# Remarks :                                                                 #
#                                                                           #
# - No other optional switches should be used.                              #
#                                                                           #
#                                              Hendrik Tolman, May 2002     #
#                                                   Last Mod : Nov 2009     #
#                                                                           #
#    Copyright 2009 National Weather Service (NWS),                         #
#       National Oceanic and Atmospheric Administration.  All rights        #
#       reserved.  WAVEWATCH III is a trademark of the NWS.                 #
#       No unauthorized use without permission.                             #
#                                                                           #
#############################################################################

# 0. Preparations -----------------------------------------------------------

  ww3_env='.wwatch3.env'   # setup file

# 0.a Set-up variables

  cd
  if [ -f $ww3_env ]
  then
    set `grep WWATCH3_DIR $ww3_env` ; shift
    main_dir="$*"
    set `grep WWATCH3_TMP $ww3_env` ; shift
    temp_dir="$*"
  else
    echo "*** Set-up file $ww3_env not found ***"
    exit
  fi

  path_w="$temp_dir"              # work directory
  path_e="$main_dir/exe"          # path for executables
  path_o="$main_dir/test"         # path for output files
# path_o="$main_dir/work"

# 0.b Clean-up

  clear
  rm -f $path_o/ww3_????.out
  rm -f $path_o/log.ww3
  rm -f $path_o/test.ww3
  rm -f $path_o/tab??.ww3

  cd $path_w
  rm -f *.ww3

  echo ' ' ; echo ' '
  echo '                  ======> TEST RUN WAVEWATCH III <====== '
  echo '                    ==================================   '
  echo '                                   propagation test'
  echo '                                   1-D along equator'       
  echo ' '

# 1. Grid pre-processor -----------------------------------------------------

  echo ' '
  echo '+--------------------+'
  echo '|  Grid preprocessor |'
  echo '+--------------------+'
  echo ' '

cat > ww3_grid.inp << EOF
$ WAVEWATCH III Grid preprocessor input file
$ ------------------------------------------
  '1-D PROPAGATION EQUATOR       '
$
   1.1 0.03679 3 4 0.
$
   F T F F F F
  3600. 3600. 3600. 3600.
$
  &PRO3 WDTHCG = 0., WDTHTH = 0. /
  &PRO4 RNFAC = 0., RSFAC = 0. /
END OF NAMELISTS
$
  'RECT' T T
  360    3
    1.   1.  1.
 -180.  -1.  1.
$
  -5. 5.75  10  -2500. 2 1 '(....)' 'UNIT' 'input'
$
  1080*1
$
  10  2 1 '(....)' 'PART' 'input'
$
   0  0  F
   0  0  F
   0  0
$
   0. 0. 0. 0.  0
EOF

  echo "   Screen ouput routed to $path_o/ww3_grid.out"
  $path_e/ww3_grid > $path_o/ww3_grid.out

  rm -f ww3_grid.inp

# 2. Initial conditions -----------------------------------------------------

  echo ' '
  echo '+--------------------+'
  echo '| Initial conditions |'
  echo '+--------------------+'
  echo ' '

cat > ww3_strt.inp << EOF
$ WAVEWATCH III Initial conditions input file
$ -------------------------------------------
  1
   0.040469  0.0001  270. 200  0. 2.  0. 2. 2.5
EOF

  echo "   Screen ouput routed to $path_o/ww3_strt.out"
  $path_e/ww3_strt > $path_o/ww3_strt.out

  rm -f ww3_strt.inp

# 3. Main program -----------------------------------------------------------

  echo ' '
  echo '+--------------------+'
  echo '|    Main program    |'
  echo '+--------------------+'
  echo ' '

cat > ww3_shel.inp << EOF
$ WAVEWATCH III shell input file
$ ------------------------------
   F T
   F T
   F T
   F
   F
   F
   F
$
   19680601 000000
   19680625 000000
$
   1
$
   19680600 000000  86400  19680625 000000
     F F F F F  T F F F F  F F F F F  F F F F F  F F F F F  F F F F F  F
   19680600 000000  86400  19680625 000000
   -10.0   0.0  'Point -10 '
    -9.0   0.0  'Point  -9 '
    -8.0   0.0  'Point  -7 '
    -7.0   0.0  'Point  -7 '
    -6.0   0.0  'Point  -6 '
    -5.0   0.0  'Point  -5 '
    -4.0   0.0  'Point  -4 '
    -3.0   0.0  'Point  -3 '
    -2.0   0.0  'Point  -2 '
    -1.0   0.0  'Point  -1 '
     0.0   0.0  'Center    '
     1.0   0.0  'Point   1 '
     2.0   0.0  'Point   2 '
     3.0   0.0  'Point   3 '
     4.0   0.0  'Point   4 '
     5.0   0.0  'Point   5 '
     6.0   0.0  'Point   6 '
     7.0   0.0  'Point   7 '
     8.0   0.0  'Point   8 '
     9.0   0.0  'Point   9 '
    10.0   0.0  'Point  10 '
     0.0   0.0  'STOPSTRING'
   19680601 000000      0  19680625 000000
   19680601 000000      0  19680625 000000
   19680601 000000      0  19680625 000000
   19680601 000000      0  19680625 000000
EOF

  $path_e/ww3_shel

  rm -f ww3_shel.inp

  echo ' ' ; echo "   Output file log.ww3 routed to $path_o"
  mv log.ww3 $path_o/.
  if [ -f test.ww3 ]
  then
    echo "   Output file test.ww3 routed to $path_o"
    mv test.ww3 $path_o/.
  fi

# 4. Gridded output ---------------------------------------------------------

  echo ' '
  echo '+--------------------+'
  echo '|   Gridded output   |'
  echo '+--------------------+'
  echo ' '

cat > ww3_outf.inp << EOF
$ WAVEWATCH III Grid output post-processing
$ -----------------------------------------
  19680601 000000 518400. 5
$
  F F F F F  T F F F F  F F F F F  F F F F F  F F F F F  F F F F F  F
$
  1 0
$
  1 360 1 1 3 1 T F F
EOF

  echo "   Screen ouput routed to $path_o/ww3_outf.out"
  $path_e/ww3_outf > $path_o/ww3_outf.out

  rm -f ww3_outf.inp

# 5. Point output -----------------------------------------------------------

  echo ' '
  echo '+--------------------+'
  echo '|    Point output    |'
  echo '+--------------------+'
  echo ' '

  echo '   Table of mean wave parameters'

cat > ww3_outp.inp << EOF
$ WAVEWATCH III Point output post-processing
$ ------------------------------------------
  19680601 000000 2073600. 24
$
  1
  2
  3
  4
  5
  6
  7
  8
  9
 10
 11
 12
 13
 14
 15
 16
 17
 18
 19
 20
 21
 -1
$
  2
$
  2  50
EOF

  echo "   Screen ouput routed to $path_o/ww3_outp.out"

  $path_e/ww3_outp > $path_o/ww3_outp.out

  echo "   Table file tab50.ww3 routed to $path_o"
  mv tab50.ww3 $path_o

  rm -f ww3_outp.inp


# 6. End, cleaning up -------------------------------------------------------

  echo ' ' ; echo ' ' ; echo "Files in `pwd` :" ; echo ' '
  ls -l *.ww3

  echo ' ' ; echo "Cleaning-up `pwd`"
  rm -f *.ww3

  echo ' ' ; echo "Files in $path_o :" ; echo ' '
  cd $path_o
  ls -l ww3_????.out
  ls -l *.ww3

  echo ' ' ; echo ' '
  echo '                  ======>  END OF WAVEWATCH III  <====== '
  echo '                    ==================================   '
  echo ' '

# End of ww3_tp1.1 ----------------------------------------------------------
