#!/bin/sh
# ---------------------------------------------------------------------------- #
# test_06 : Deep-water time-limited growth test with constand wind speed and   #
#           direction and preexisting swell.                                   #
#                                                                              #
# Remarks : This script runs exclusively in the directory from which it is     #
#           called. Managing scripts work on the storage of the output.        #
#                                                                              #
#                                      Author      : Hendrik L. Tolman         #
#                                                                              #
# 13-Nov-2008 : Origination.                                                   #
#                                                                              #
#    Copyright 2008-2010 National Weather Service (NWS),                       #
#       National Oceanic and Atmospheric Administration.  All rights           #
#       reserved.  Distributed as part of WAVEWATCH III. WAVEWATCH III is a    #
#       trademark of the NWS. No unauthorized use without permission.          #
#                                                                              #
# ---------------------------------------------------------------------------- #
# 0.  Preparations :
# 0.a General

  set -e

  echo ' ' ; echo ' '
  echo '                  ======> TEST RUN WAVEWATCH III <====== '
  echo '                    ==================================   '
  echo '                                   homogeneous growth test test_06'
  echo '                                   constant wind speed and direction'
  echo '                                   pre-existing swell'
  echo ' '

  ww3_env='.wwatch3.env'          # WAVEWATCH III setup file.
    setup='.genes.env'            # Package setup file.
     main=`pwd`                   # Main (work) directory.
     grid=genes.spec.env          # Setup file
     srce=genes.source.env        # Setup file
      snl=genes.snl.env           # Setup file

# 0.b WAVEWATCH setup

  cd
  if [ -f $ww3_env ]
  then
    set `grep WWATCH3_DIR $ww3_env` ; shift
    main_dir="$*"
    path_e="$main_dir/exe"        # path for executables
    echo "   Setup file $ww3_env found."
    echo "   Executables directory ; $path_e"
  else
    echo "   Set-up file $ww3_env not found (abort)"
    exit 1
  fi

# 0.c GMD optimization package setup

  if [ -f $setup ]
  then
    echo "   Setup file $setup found."
    . $setup
    echo "   Main genes directory ; $genes_main"
  else
    echo "   Setup file $setup NOT found (abort)."
    exit 2
  fi

  cd $genes_main

  if [ ! -f $grid ] ; then
    echo "   Setup file $grid not found (abort)." ; exit 3 ; fi

  NFR=`tail -1 $grid | awk '{ print $3}'`
  NTH=`tail -1 $grid | awk '{ print $4}'`

  if [ ! -f $srce ] ; then
    echo "   Setup file $srce not found (abort)." ; exit 4 ; fi

# 0.d Initial cleanup

  cd $main

  if [ ! -f $snl ] ; then
    echo "   Setup file $snl not found (OK)." ; fi

  echo "   Work directory for script : `pwd`"

  rm -f *.out *.inp *.ww3 ww3.*

# ---------------------------------------------------------------------------- #
# 1. Grid preprocessor

  echo ' '
  echo '+--------------------+'
  echo '|  Grid preprocessor |'
  echo '+--------------------+'
  echo ' '

cat > ww3_grid.inp << EOF 
$ WAVEWATCH III Grid preprocessor input file
$ ------------------------------------------
  'test_06: Time limited growth  '
$ 
EOF
cat $genes_main/$grid   >> ww3_grid.inp
cat >> ww3_grid.inp << EOF 
$ 
   F F F F F T
 900.  900.  900.   1.
$
EOF
cat $genes_main/$srce   >> ww3_grid.inp
if [ -f "$snl" ] ; then
  cat $snl ; fi         >> ww3_grid.inp
cat >> ww3_grid.inp << EOF 
END OF NAMELISTS
$ 
   3   3
   1.  1.  1.
  -1. -1.  1.
  -5. 5.75  10  -2500. 3 1 '(....)' 'UNIT' 'input'
$ 
   1  1  1
   1  1  1
   1  1  1
$  
   10 3 1 '(....)' 'PART' 'mapsta.inp'
   0  0  F
   0  0  F
   0  0
$  
   0. 0. 0. 0.  0
EOF
   
  echo "   Screen ouput routed to ww3_grid.out"
  $path_e/ww3_grid > ww3_grid.out

  rm -f ww3_grid.inp  

# 2. Initial conditions -----------------------------------------------------

  echo ' '
  echo '+--------------------+'
  echo '| Initial conditions |'
  echo '+--------------------+'
  echo ' '

  echo "   Set up wind sea ...."

cat > ww3_strt.inp << EOF
$ WAVEWATCH III Initial conditions input file
$ -------------------------------------------
  2
$
  0.0  0.25  270.  2.0 0. 0. 0. 1. 0. 1.
EOF

  echo "   Screen ouput routed to ww3_st_1.out"
  $path_e/ww3_strt > ww3_st_1.out

  mv restart.ww3 restart.1
  rm -f ww3_strt.inp

  echo "   Set up swell ...."

cat > ww3_strt.inp << EOF
$ WAVEWATCH III Initial conditions input file
$ -------------------------------------------
  1
$
  0.06  0.002  135. 20  0. 0.1 0. 0.1 5.0
EOF

  echo "   Screen ouput routed to ww3_st_2.out"
  $path_e/ww3_strt > ww3_st_2.out

  mv restart.ww3 restart.2
  rm -f ww3_strt.inp

  echo '   Combining initial fields ...'
  echo "$NFR $NTH" | $genes_main/exe/restart_co.x > restart_co.out
  rm -f restart_co.out

  mv restart.1 restart.ww3
  rm -f restart.2

# 3. Main program -----------------------------------------------------------

  echo ' '
  echo '+--------------------+'
  echo '|    Main program    |'
  echo '+--------------------+'
  echo ' '

cat > ww3_shel.inp << EOF
$ WAVEWATCH III shell input file
$ ------------------------------
   F T
   F T
   T T
   F
   F
   F
   F
$  
   19680606 000000
   19680608 000000
$
   1
$  
   19680606 000000      0  19680608 000000
   19680606 000000    900  19680608 000000
     0.0   0.0  'The_point '
     0.0   0.0  'STOPSTRING'
   19680607 000000      0  19680608 000000
   19680607 000000      0  19680608 000000
   19680606 000000      0  19680608 000000
   19680606 000000      0  19680608 000000
$  
   'WND' 19680606 000000   20.   270.  -20.
   'STP'
EOF

  echo "   Screen ouput routed to ww3_shel.out"
  $path_e/ww3_shel > ww3_shel.out

  run_time=`grep 'Elapsed time' log.ww3 | awk '{ print $4}'`
  echo "      Run time : $run_time s"

  rm -f ww3_shel.inp restart.* test*.ww3

# 4. Gridded output ---------------------------------------------------------

# echo ' '
# echo '+--------------------+'
# echo '|   Gridded output   |'
# echo '+--------------------+'
# echo ' '

# 5. Point output -----------------------------------------------------------

  echo ' '
  echo '+--------------------+'
  echo '|    Point output    |' 
  echo '+--------------------+'
  echo ' '

# 5.a Spectral data 

  echo "   Raw spectral data ..."

cat > ww3_outp.inp << EOF
$ WAVEWATCH III Point output post-processing
$ ------------------------------------------
  19680606 010000  3600. 9999
$
  1
 -1
$
  1
$
  3  0.  0.  52  T
EOF

  echo "      Screen output routed to ww3_op_1.out"
  $path_e/ww3_outp > ww3_op_1.out

  echo "      Table file ww3.68060601.spc routed to spec.ww3"
  mv ww3.68060601.spc spec.ww3
  rm -f ww3_outp.inp

# 5.b Source term (Snl) data

  echo "   Raw source term data ..."

cat > ww3_outp.inp << EOF
$ WAVEWATCH III Point output post-processing
$ ------------------------------------------
  19680606 010000  3600. 9999
$
  1
 -1
$
  3
$
  4  0. 0. 52   F F T F F F  0  T
EOF

  echo "      Screen output routed to ww3_op_2.out"
  $path_e/ww3_outp > ww3_op_2.out

  echo "      Table file ww3.68060601.src routed to source.ww3"
  mv ww3.68060601.src source.ww3
  rm -f ww3_outp.inp

# 5.c Partitioned data

  echo "   Partitioned data ..."

cat > ww3_outp.inp << EOF
$ WAVEWATCH III Point output post-processing
$ ------------------------------------------
  19680606 010000  3600. 9999
$
  1
 -1
$
  1
$
  4  0.  0.  52  T
EOF

  echo "      Screen output routed to ww3_op_3.out"
  $path_e/ww3_outp > ww3_op_3.out

  echo "      Table file tab52.ww3 routed to part.ww3"
  mv tab52.ww3 part.ww3
  rm -f ww3_outp.inp

# 5.d Grads spectra

  echo '   GrADS spectra'

cat > gx_outp.inp << EOF
$ WAVEWATCH III Point output post-processing (GrADS)
$ --------------------------------------------------
$ 19680606 000000   900.   6
  19680606 000000 10800. 999
$
  1
 -1
$
  T T T T T T
EOF

    echo "   Screen output routed to gx_outp.out"
    $path_e/gx_outp > gx_outp.out

    rm -f gx_outp.inp

# ---------------------------------------------------------------------------- #
# 6. End of script

  rm -f quad*.bqf xnl4v5.*

  echo ' ' ; echo ' '
  echo '                  ======>  END OF WAVEWATCH III  <====== '
  echo '                    ==================================   '
  echo ' '
  echo 'End of test_06' 

# End of test_06 ------------------------------------------------------------- #
