#!/bin/sh
# ---------------------------------------------------------------------------- #
# test_hr : Moving hurricane test adapted from mww3_test_05.                   #
#                                                                              #
# Remarks : This script runs exclusively in the directory from which it is     #
#           called. Managing scripts work on the storage of the output.        #
#         - The mpirun option is implemented only to produce the WRT version   #
#           effectively.                                                       #
#         - For final testing only. Should not be used for optimization.       #
#         - Compile model with MGG MGP MGW flags for this test only.           #
#                                                                              #
#                                      Author      : Hendrik L. Tolman         #
#                                                                              #
# 28-Sep-2010 : Origination.                                                   #
#                                                                              #
#    Copyright 2010 National Weather Service (NWS),                            #
#       National Oceanic and Atmospheric Administration.  All rights           #
#       reserved.  Distributed as part of WAVEWATCH III. WAVEWATCH III is a    #
#       trademark of the NWS. No unauthorized use without permission.          #
#                                                                              #
# ---------------------------------------------------------------------------- #
# 0.  Preparations :
# 0.a General

  set -e

  echo ' ' ; echo ' '
  echo '                  ======> TEST RUN WAVEWATCH III <====== '
  echo '                    ==================================   '
  echo '                                   Hurricane test test_hr'
  echo ' '

  ww3_env='.wwatch3.env'          # WAVEWATCH III setup file.
    setup='.genes.env'            # Package setup file.
     main=`pwd`                   # Main (work) directory.
     grid=genes.spec.env          # Setup file
     srce=genes.source.env        # Setup file
      snl=genes.snl.env           # Setup file

# 0.b WAVEWATCH setup

  cd
  if [ -f $ww3_env ]
  then
    set `grep WWATCH3_DIR $ww3_env` ; shift
    main_dir="$*"
    path_e="$main_dir/exe"        # path for executables
    echo "   Setup file $ww3_env found."
    echo "   Executables directory ; $path_e"
  else
    echo "   Set-up file $ww3_env not found (abort)"
    exit 1
  fi

# 0.c GMD optimization package setup

  if [ -f $setup ]
  then
    echo "   Setup file $setup found."
    . $setup
    echo "   Main genes directory ; $genes_main"
  else
    echo "   Setup file $setup NOT found (abort)."
    exit 2
  fi

  cd $genes_main

  if [ ! -f $grid ] ; then
    echo "   Setup file $grid not found (abort)." ; exit 3 ; fi

  if [ ! -f $srce ] ; then
    echo "   Setup file $srce not found (abort)." ; exit 4 ; fi

# 0.d Initial cleanup

  cd $main

  if [ ! -f $snl ] ; then
    echo "   Setup file $snl not found (OK)." ; fi

  echo "   Work directory for script : `pwd`"

  rm -f *.out *.inp *.ww3 ww3.* mod_def.* wind.*

# ---------------------------------------------------------------------------- #
# 1. Grid preprocessor

  echo ' '
  echo '+--------------------+'
  echo '|  Grid preprocessor |'
  echo '+--------------------+'
  echo ' '

  sed -n '/^\$/!p' $genes_main/genes.spec.env    > tempspec
  sed -n '/^\$/!p' $genes_main/genes.source.env  > tempsource

  for grid in grd1 grd2 grd3 input points
  do
    sed -e "/SPECTRA/r tempspec" \
        -e 's/SPECTRA/DUMMY/g' \
        -e "/SOURCES/r tempsource" \
        -e 's/SOURCES/DUMMY/g' \
        $genes_main/tests/test_hr.data/grid.$grid | \
    sed -n '/DUMMY/!p' > ww3_grid.inp
    echo "   Screen ouput routed to ww3_grid.$grid.out"
    $path_e/ww3_grid > ww3_grid.$grid.out
    rm -f ww3_grid.inp
    mv mod_def.ww3 mod_def.$grid
  done

  rm -f tempspec tempsource

# 2. Initial conditions -----------------------------------------------------

  echo ' '
  echo '+--------------------+'
  echo '| Initial conditions |'
  echo '+--------------------+'
  echo ' '

cat > ww3_strt.inp << EOF
$ WAVEWATCH III Initial conditions input file
$ -------------------------------------------
  5
EOF

  for grid in grd1 grd2 grd3
  do
    if [ -f restart1.$grid ]
    then
      echo "   Found file restart1.$grid"
      mv restart1.$grid restart.$grid
    else
      ln -sf mod_def.$grid mod_def.ww3
      echo "   Screen ouput routed to ww3_strt.$grid.out"
      $path_e/ww3_strt > ww3_strt.$grid.out
      mv restart.ww3 restart.$grid
      rm -f mod_def.ww3
    fi
  done

  rm -f ww3_strt.inp

# 3. Wind field -------------------------------------------------------------

  echo ' '
  echo '+--------------------+'
  echo '|      Wind field    |'
  echo '+--------------------+'
  echo ' '

cat > ww3_prep.inp << EOF
$ WAVEWATCH III Field preprocessor input file
$ -------------------------------------------
   'WND' 'AI' T T
$
  'NAME' 1 1 '(..T..)' '(..F..)'
  20 'wind.data'
EOF

  cp  $genes_main/tests/test_hr.data/wind.data .
  ln -sf mod_def.input mod_def.ww3

  echo "   Screen ouput routed to ww3_prep.wind.out"
  $path_e/ww3_prep > ww3_prep.wind.out

  rm -f ww3_prep.inp wind.data
  mv wind.ww3 wind.input

# 4. Main program -----------------------------------------------------------

  echo ' '
  echo '+--------------------+'
  echo '|    Main program    |'
  echo '+--------------------+'
  echo ' '

cat > ww3_multi.inp << EOF
$ WAVEWATCH III multi-scale input file
$ ------------------------------------
  3 1 T 1 T T
$
  'input' F F T F F F F
$
  'points'
$
  'grd1'  'no' 'no' 'input' 'no' 'no' 'no' 'no'   1  1  0.00 1.00  F
  'grd2'  'no' 'no' 'input' 'no' 'no' 'no' 'no'   2  1  0.00 1.00  F
  'grd3'  'no' 'no' 'input' 'no' 'no' 'no' 'no'   3  1  0.00 1.00  F
$
$  19680606 000000   19680607 000000
$  19680606 000000   19680606 080000
$  19680606 080000   19680606 160000
   19680606 160000   19680607 000000
$
    T T
$
   19680606 000000   3600  19680607 000000
  F F T F F  T F F F F  T T F F T  T F T F F  F T F F F  F F F F F  F
   19680606 000000   3600  19680608 000000
EOF
  sed -n '/^\$/!p' $genes_main/tests/test_hr.data/buoy.input  >> ww3_multi.inp 
  sed -n '/^\$/!p' $genes_main/tests/test_hr.data/buoy.input | \
  sed -e 's/E3//g' -e "s/'//g" > $genes_main/tests/test_hr.data/buoy.grads
  ln -sf  $genes_main/tests/test_hr.data/buoy.grads $genes_main/buoy.all
cat >> ww3_multi.inp << EOF
       0.E3     0.E3  'STOPSTRING'
$
   19680606 000000      0  19680608 000000
   19680606 000000      0  19680608 000000
$  19680606 080000      1  19680606 080000
$  19680606 160000      1  19680606 160000
   19680606 000000      0  19680608 000000
   19680606 000000      0  19680608 000000
$
$
  'the_end'  0
$
  'MOV' 19680606 000000   5.  90.
  'STP'
$
$ End of input file
EOF

  echo "   Screen ouput routed to ww3_multi.out"
# $path_e/ww3_multi > ww3_multi.out
# mpirun -np 16 $path_e/ww3_multi # > ww3_multi.out
  poe $path_e/ww3_multi # > ww3_multi.out

  run_time=`grep 'Elapsed time' log.mww3 | awk '{ print $4}'`
  echo "      Run time : $run_time s"

  rm -f ww3_multi.inp restart.* test*.*ww3 

# 5. Gridded output ---------------------------------------------------------

  echo ' '
  echo '+--------------------+'
  echo '|   Gridded output   |'
  echo '+--------------------+'
  echo ' '

cat > gx_outf.inp << EOF
$ WAVEWATCH III Grid output post-processing
$ -----------------------------------------
$ 19680606 000000  3600.  25
$ 19680606 000000  3600.   8
$ 19680606 080000  3600.   8
  19680606 160000  3600.   9
$
  F F T F F  T F F F F  T T F F T  T F T F F  F T F F F  F F F F F  F
$
  0 999 0 999  T F
$
$ End of input file
EOF

  for mod in grd1 grd2 grd3
  do
    echo "   GrADS data for $mod ..."
    echo "      Screen ouput routed to gx_outf.$mod.out"
    ln -sf mod_def.$mod mod_def.ww3
    ln -sf out_grd.$mod out_grd.ww3

    $path_e/gx_outf > gx_outf.$mod.out

    echo "      ww3.ctl routed to $mod.ctl"

    case $mod in
      'grd2' )  sed -e "s/ww3\.grads/ww3\.$mod/g" \
                    -e "s/37\.5/3\.75/g" \
                    -e "s/1\.50/0\.15/g" \
                                          ww3.ctl > $mod.ctl ;;
      'grd3' )  sed -e "s/ww3\.grads/ww3\.$mod/g" \
                    -e "s/12\.5/1\.25/g" \
                    -e "s/0\.50/0\.05/g" \
                                          ww3.ctl > $mod.ctl ;;
        *    )  sed -e "s/ww3\.grads/ww3\.$mod/g" ww3.ctl \
                                                  > $mod.ctl ;;
    esac

    rm -f ww3.ctl
    echo "      ww3.grads routed to ww3.$mod"
    mv ww3.grads ww3.$mod

    rm -f mod_def.ww3 out_grd.ww3

  done

  rm -f gx_outf.inp out_grd.*

# 6. Point output -----------------------------------------------------------

  echo ' '
  echo '+--------------------+'
  echo '|    Point output    |' 
  echo '+--------------------+'
  echo ' '

  mv mod_def.points mod_def.ww3
  mv out_pnt.points out_pnt.ww3

# 5.a Spectral data 

  echo "   Raw spectral data ..."

cat > ww3_outp.inp << EOF
$ WAVEWATCH III Point output post-processing
$ ------------------------------------------
  19680607 000000  3600.   1
$
  1
  2
  3
  4
  5  
  6
  7
  8
  9
 10
 11
 12
 13
 14
 15
 16
 17
 18
 19 
 20
 21
 22
 23
 24
 25
 26
 27
 28
 29
 30
 31
 32
 33
 -1
$
  1
$
  3  0.  0.  52  T
EOF

  echo "      Screen output routed to ww3_op_1.out"
  $path_e/ww3_outp > ww3_op_1.out

  echo "      Table file ww3.68060700.spc routed to spec.ww3"
  mv ww3.68060700.spc spec.ww3
  rm -f ww3_outp.inp

# 5.b Source term (Snl) data

  echo "   Raw source term data ..."

cat > ww3_outp.inp << EOF
$ WAVEWATCH III Point output post-processing
$ ------------------------------------------
  19680607 000000  3600.   1
$
  1
  2
  3
  4
  5  
  6
  7
  8
  9
 10
 11
 12
 13
 14
 15
 16
 17
 18
 19 
 20
 21
 22
 23
 24
 25
 26
 27
 28
 29
 30
 31
 32
 33
 -1
$
  3
$
  4  0. 0. 52   F F T F F F  0  T
EOF

  echo "      Screen output routed to ww3_op_2.out"
  $path_e/ww3_outp > ww3_op_2.out

  echo "      Table file ww3.68060700.src routed to source.ww3"
  mv ww3.68060700.src source.ww3
  rm -f ww3_outp.inp

# 5.c Partitioned data

  echo "   Partitioned data ..."

cat > ww3_outp.inp << EOF
$ WAVEWATCH III Point output post-processing
$ ------------------------------------------
  19680607 000000 3600.  1
$
  1
  2
  3
  4
  5  
  6
  7
  8
  9
 10
 11
 12
 13
 14
 15
 16
 17
 18
 19 
 20
 21
 22
 23
 24
 25
 26
 27
 28
 29
 30
 31
 32
 33
 -1
$
  1
$
  4  0.  0.  52  T
EOF

  echo "      Screen output routed to ww3_op_3.out"
  $path_e/ww3_outp > ww3_op_3.out

  echo "      Table file tab52.ww routed to part.ww3"
  mv tab52.ww3 part.ww3
  rm -f ww3_outp.inp

# 5.d Grads spectra

  echo '   GrADS spectra'

cat > gx_outp.inp << EOF
$ WAVEWATCH III Point output post-processing (GrADS)
$ --------------------------------------------------
  19680607 000000 3600.  1
$
  1
  2
  3
  4
  5  
  6
  7
  8
  9
 10
 11
 12
 13
 14
 15
 16
 17
 18
 19 
 20
 21
 22
 23
 24
 25
 26
 27
 28
 29
 30
 31
 32
 33
 -1
$
  T T T T T T
EOF

    echo "   Screen output routed to gx_outp.out"
    $path_e/gx_outp > gx_outp.out

    rm -f gx_outp.inp

# ---------------------------------------------------------------------------- #
# 7. End of script

  rm -f quad*.bqf xnl4v5.*

  echo ' ' ; echo ' '
  echo '                  ======>  END OF WAVEWATCH III  <====== '
  echo '                    ==================================   '
  echo ' '
  echo 'End of test_hr' 

# End of test_hr ------------------------------------------------------------- #
