$ WAVEWATCH III Grid output post-processing
$ -----------------------------------------
  20140309 000000 3600. 37 
$
N
HS DIR DP T02 FP STMAXE STMAXD HMAXE HCMAXE HMAXD HCMAXD QP QKK
$
  3 0
  1 43 1 42 1 1 
$
