$ WAVEWATCH III Grid output post-processing
$ -----------------------------------------
  19680606 000000 3600. 13
$
  F F F F F  T F F T T  F F F F F  F F F F F  F F F F F F  F F F F F  F
$
  1 0
$
  2 12 1 2 2 1 F F F
