$ -------------------------------------------------------------------- $
$ WAVEWATCH III Field preprocessor input file                          $
$ -------------------------------------------------------------------- $
$ Mayor types of field and time flag
$   Field types  :  IC1, IC2, IC3, IC4, IC5 => Ice parameters (5)
$                   MDN   => Mud densities
$                   MTH   => Mud thicknesses
$                   MVS   => Mud viscosities 
$                   ICE   => Ice concentrations.
$                   LEV   => Water levels.
$                   WND   => Winds.
$                   WNS   => Winds (including air-sea temp. dif.)
$                   CUR   => Currents.
$   Format types :  AI    Transfer field 'as is'.
$                   LL    Field defined on longitude-latitude grid.
$                   F1    Arbitrary grid, longitude and latitude of
$                         each grid point given in separate file.
$                   F2    Like F1, composite of 2 fields.
$   Time flag    : If true, time is included in file.
$   Header flag  : If true, write header on "*.ww3" data file
$
   'IC1' 'AI' F T
$
$ Additional time input ---------------------------------------------- $
$ If time flag is .FALSE., give time of field in yyyymmdd hhmmss format.
$
  19680606 000000 
$
$ Define data files -------------------------------------------------- $
$ The first input line identifies the file format with FROM, IDLA and
$ IDFM, the second (third) lines give the file unit number and name.
$
  'UNIT' 3 1 '(..T..)' '(..F..)' 
  10 'icecoef1'
$ If the above unit numbers are 10, data is read from this file
$ (no intermediate comment lines allowed),
$
$
$ This regtest was not quite correct. These fields were 153x3 using AI format and grid.inp is 156x3 . Should be fixed now.
 2.00 1.99 1.98 1.96 1.95 1.94 1.93 1.91 1.90 1.89 1.88 1.86 1.85 1.84 1.82 1.81 1.80 1.79 1.77 1.76 1.75 1.74 1.73 1.71 1.70 1.69 1.68 1.66 1.65 1.64 1.62 1.61 1.60 1.59 1.57 1.56 1.55 1.54 1.52 1.51 1.50 1.49 1.48 1.46 1.45 1.44 1.43 1.41 1.40 1.39 1.38 1.36 1.35 1.34 1.33 1.31 1.30 1.29 1.27 1.26 1.25 1.24 1.23 1.21 1.20 1.19 1.18 1.16 1.15 1.14 1.12 1.11 1.10 1.09 1.08 1.06 1.05 1.04 1.02 1.01 1.00 0.99 0.98 0.96 0.95 0.94 0.93 0.91 0.90 0.89 0.88 0.86 0.85 0.84 0.82 0.81 0.80 0.79 0.78 0.76 0.75 0.74 0.73 0.71 0.70 0.69 0.68 0.66 0.65 0.64 0.62 0.61 0.60 0.59 0.57 0.56 0.55 0.54 0.53 0.51 0.50 0.49 0.48 0.46 0.45 0.44 0.43 0.41 0.40 0.39 0.38 0.36 0.35 0.34 0.32 0.31 0.30 0.29 0.28 0.26 0.25 0.24 0.22 0.21 0.20 0.19 0.18 0.16 0.15 0.14 0.12 0.11 0.10 0.10 0.10 0.10
 2.00 1.99 1.98 1.96 1.95 1.94 1.93 1.91 1.90 1.89 1.88 1.86 1.85 1.84 1.82 1.81 1.80 1.79 1.77 1.76 1.75 1.74 1.73 1.71 1.70 1.69 1.68 1.66 1.65 1.64 1.62 1.61 1.60 1.59 1.57 1.56 1.55 1.54 1.52 1.51 1.50 1.49 1.48 1.46 1.45 1.44 1.43 1.41 1.40 1.39 1.38 1.36 1.35 1.34 1.33 1.31 1.30 1.29 1.27 1.26 1.25 1.24 1.23 1.21 1.20 1.19 1.18 1.16 1.15 1.14 1.12 1.11 1.10 1.09 1.08 1.06 1.05 1.04 1.02 1.01 1.00 0.99 0.98 0.96 0.95 0.94 0.93 0.91 0.90 0.89 0.88 0.86 0.85 0.84 0.82 0.81 0.80 0.79 0.78 0.76 0.75 0.74 0.73 0.71 0.70 0.69 0.68 0.66 0.65 0.64 0.62 0.61 0.60 0.59 0.57 0.56 0.55 0.54 0.53 0.51 0.50 0.49 0.48 0.46 0.45 0.44 0.43 0.41 0.40 0.39 0.38 0.36 0.35 0.34 0.32 0.31 0.30 0.29 0.28 0.26 0.25 0.24 0.22 0.21 0.20 0.19 0.18 0.16 0.15 0.14 0.12 0.11 0.10 0.10 0.10 0.10
 2.00 1.99 1.98 1.96 1.95 1.94 1.93 1.91 1.90 1.89 1.88 1.86 1.85 1.84 1.82 1.81 1.80 1.79 1.77 1.76 1.75 1.74 1.73 1.71 1.70 1.69 1.68 1.66 1.65 1.64 1.62 1.61 1.60 1.59 1.57 1.56 1.55 1.54 1.52 1.51 1.50 1.49 1.48 1.46 1.45 1.44 1.43 1.41 1.40 1.39 1.38 1.36 1.35 1.34 1.33 1.31 1.30 1.29 1.27 1.26 1.25 1.24 1.23 1.21 1.20 1.19 1.18 1.16 1.15 1.14 1.12 1.11 1.10 1.09 1.08 1.06 1.05 1.04 1.02 1.01 1.00 0.99 0.98 0.96 0.95 0.94 0.93 0.91 0.90 0.89 0.88 0.86 0.85 0.84 0.82 0.81 0.80 0.79 0.78 0.76 0.75 0.74 0.73 0.71 0.70 0.69 0.68 0.66 0.65 0.64 0.62 0.61 0.60 0.59 0.57 0.56 0.55 0.54 0.53 0.51 0.50 0.49 0.48 0.46 0.45 0.44 0.43 0.41 0.40 0.39 0.38 0.36 0.35 0.34 0.32 0.31 0.30 0.29 0.28 0.26 0.25 0.24 0.22 0.21 0.20 0.19 0.18 0.16 0.15 0.14 0.12 0.11 0.10 0.10 0.10 0.10
$ 5.00 4.97 4.95 4.92 4.89 4.87 4.84 4.82 4.79 4.76 4.74 4.71 4.68 4.66 4.63 4.61 4.58 4.55 4.53 4.50 4.47 4.45 4.42 4.39 4.37 4.34 4.32 4.29 4.26 4.24 4.21 4.18 4.16 4.13 4.11 4.08 4.05 4.03 4.00 3.97 3.95 3.92 3.89 3.87 3.84 3.82 3.79 3.76 3.74 3.71 3.68 3.66 3.63 3.61 3.58 3.55 3.53 3.50 3.47 3.45 3.42 3.39 3.37 3.34 3.32 3.29 3.26 3.24 3.21 3.18 3.16 3.13 3.11 3.08 3.05 3.03 3.00 2.97 2.95 2.92 2.89 2.87 2.84 2.82 2.79 2.76 2.74 2.71 2.68 2.66 2.63 2.61 2.58 2.55 2.53 2.50 2.47 2.45 2.42 2.39 2.37 2.34 2.32 2.29 2.26 2.24 2.21 2.18 2.16 2.13 2.11 2.08 2.05 2.03 2.00 1.97 1.95 1.92 1.89 1.87 1.84 1.82 1.79 1.76 1.74 1.71 1.68 1.66 1.63 1.61 1.58 1.55 1.53 1.50 1.47 1.45 1.42 1.39 1.37 1.34 1.32 1.29 1.26 1.24 1.21 1.18 1.16 1.13 1.11 1.08 1.05 1.03 1.00
$ 5.00 4.97 4.95 4.92 4.89 4.87 4.84 4.82 4.79 4.76 4.74 4.71 4.68 4.66 4.63 4.61 4.58 4.55 4.53 4.50 4.47 4.45 4.42 4.39 4.37 4.34 4.32 4.29 4.26 4.24 4.21 4.18 4.16 4.13 4.11 4.08 4.05 4.03 4.00 3.97 3.95 3.92 3.89 3.87 3.84 3.82 3.79 3.76 3.74 3.71 3.68 3.66 3.63 3.61 3.58 3.55 3.53 3.50 3.47 3.45 3.42 3.39 3.37 3.34 3.32 3.29 3.26 3.24 3.21 3.18 3.16 3.13 3.11 3.08 3.05 3.03 3.00 2.97 2.95 2.92 2.89 2.87 2.84 2.82 2.79 2.76 2.74 2.71 2.68 2.66 2.63 2.61 2.58 2.55 2.53 2.50 2.47 2.45 2.42 2.39 2.37 2.34 2.32 2.29 2.26 2.24 2.21 2.18 2.16 2.13 2.11 2.08 2.05 2.03 2.00 1.97 1.95 1.92 1.89 1.87 1.84 1.82 1.79 1.76 1.74 1.71 1.68 1.66 1.63 1.61 1.58 1.55 1.53 1.50 1.47 1.45 1.42 1.39 1.37 1.34 1.32 1.29 1.26 1.24 1.21 1.18 1.16 1.13 1.11 1.08 1.05 1.03 1.00
$ 5.00 4.97 4.95 4.92 4.89 4.87 4.84 4.82 4.79 4.76 4.74 4.71 4.68 4.66 4.63 4.61 4.58 4.55 4.53 4.50 4.47 4.45 4.42 4.39 4.37 4.34 4.32 4.29 4.26 4.24 4.21 4.18 4.16 4.13 4.11 4.08 4.05 4.03 4.00 3.97 3.95 3.92 3.89 3.87 3.84 3.82 3.79 3.76 3.74 3.71 3.68 3.66 3.63 3.61 3.58 3.55 3.53 3.50 3.47 3.45 3.42 3.39 3.37 3.34 3.32 3.29 3.26 3.24 3.21 3.18 3.16 3.13 3.11 3.08 3.05 3.03 3.00 2.97 2.95 2.92 2.89 2.87 2.84 2.82 2.79 2.76 2.74 2.71 2.68 2.66 2.63 2.61 2.58 2.55 2.53 2.50 2.47 2.45 2.42 2.39 2.37 2.34 2.32 2.29 2.26 2.24 2.21 2.18 2.16 2.13 2.11 2.08 2.05 2.03 2.00 1.97 1.95 1.92 1.89 1.87 1.84 1.82 1.79 1.76 1.74 1.71 1.68 1.66 1.63 1.61 1.58 1.55 1.53 1.50 1.47 1.45 1.42 1.39 1.37 1.34 1.32 1.29 1.26 1.24 1.21 1.18 1.16 1.13 1.11 1.08 1.05 1.03 1.00
$10.00 10.00 10.00 10.00 9.94 9.88 9.82 9.76 9.70 9.64 9.58 9.52 9.46 9.40 9.34 9.28 9.21 9.15 9.09 9.03 8.97 8.91 8.85 8.79 8.73 8.67 8.61 8.55 8.49 8.43 8.37 8.31 8.25 8.19 8.13 8.07 8.01 7.95 7.89 7.83 7.77 7.70 7.64 7.58 7.52 7.46 7.40 7.34 7.28 7.22 7.16 7.10 7.04 6.98 6.92 6.86 6.80 6.74 6.68 6.62 6.56 6.50 6.44 6.38 6.32 6.26 6.19 6.13 6.07 6.01 5.95 5.89 5.83 5.77 5.71 5.65 5.59 5.53 5.47 5.41 5.35 5.29 5.23 5.17 5.11 5.05 4.99 4.93 4.87 4.81 4.74 4.68 4.62 4.56 4.50 4.44 4.38 4.32 4.26 4.20 4.14 4.08 4.02 3.96 3.90 3.84 3.78 3.72 3.66 3.60 3.54 3.48 3.42 3.36 3.30 3.23 3.17 3.11 3.05 2.99 2.93 2.87 2.81 2.75 2.69 2.63 2.57 2.51 2.45 2.39 2.33 2.27 2.21 2.15 2.09 2.03 1.97 1.91 1.85 1.79 1.72 1.66 1.60 1.54 1.48 1.42 1.36 1.30 1.24 1.18 1.12 1.06 1.00
$10.00 10.00 10.00 10.00 9.94 9.88 9.82 9.76 9.70 9.64 9.58 9.52 9.46 9.40 9.34 9.28 9.21 9.15 9.09 9.03 8.97 8.91 8.85 8.79 8.73 8.67 8.61 8.55 8.49 8.43 8.37 8.31 8.25 8.19 8.13 8.07 8.01 7.95 7.89 7.83 7.77 7.70 7.64 7.58 7.52 7.46 7.40 7.34 7.28 7.22 7.16 7.10 7.04 6.98 6.92 6.86 6.80 6.74 6.68 6.62 6.56 6.50 6.44 6.38 6.32 6.26 6.19 6.13 6.07 6.01 5.95 5.89 5.83 5.77 5.71 5.65 5.59 5.53 5.47 5.41 5.35 5.29 5.23 5.17 5.11 5.05 4.99 4.93 4.87 4.81 4.74 4.68 4.62 4.56 4.50 4.44 4.38 4.32 4.26 4.20 4.14 4.08 4.02 3.96 3.90 3.84 3.78 3.72 3.66 3.60 3.54 3.48 3.42 3.36 3.30 3.23 3.17 3.11 3.05 2.99 2.93 2.87 2.81 2.75 2.69 2.63 2.57 2.51 2.45 2.39 2.33 2.27 2.21 2.15 2.09 2.03 1.97 1.91 1.85 1.79 1.72 1.66 1.60 1.54 1.48 1.42 1.36 1.30 1.24 1.18 1.12 1.06 1.00
$10.00 10.00 10.00 10.00 9.94 9.88 9.82 9.76 9.70 9.64 9.58 9.52 9.46 9.40 9.34 9.28 9.21 9.15 9.09 9.03 8.97 8.91 8.85 8.79 8.73 8.67 8.61 8.55 8.49 8.43 8.37 8.31 8.25 8.19 8.13 8.07 8.01 7.95 7.89 7.83 7.77 7.70 7.64 7.58 7.52 7.46 7.40 7.34 7.28 7.22 7.16 7.10 7.04 6.98 6.92 6.86 6.80 6.74 6.68 6.62 6.56 6.50 6.44 6.38 6.32 6.26 6.19 6.13 6.07 6.01 5.95 5.89 5.83 5.77 5.71 5.65 5.59 5.53 5.47 5.41 5.35 5.29 5.23 5.17 5.11 5.05 4.99 4.93 4.87 4.81 4.74 4.68 4.62 4.56 4.50 4.44 4.38 4.32 4.26 4.20 4.14 4.08 4.02 3.96 3.90 3.84 3.78 3.72 3.66 3.60 3.54 3.48 3.42 3.36 3.30 3.23 3.17 3.11 3.05 2.99 2.93 2.87 2.81 2.75 2.69 2.63 2.57 2.51 2.45 2.39 2.33 2.27 2.21 2.15 2.09 2.03 1.97 1.91 1.85 1.79 1.72 1.66 1.60 1.54 1.48 1.42 1.36 1.30 1.24 1.18 1.12 1.06 1.00
$
$ -------------------------------------------------------------------- $
$ End of input file                                                    $
$ -------------------------------------------------------------------- $
