$ WAVEWATCH III Grid preprocessor input file
$ -------------------------------------------
  'global_720x361'
$
   1.1  0.0418 25  36  5.0
$
$ Set model flags ----------------------------------------------- $
$  - FLDRY         Dry run (input/output only, no calculation).
$  - FLCX, FLCY    Activate X and Y component of propagation.
$  - FLCTH, FLCK   Activate direction and wavenumber shifts.
$  - FLSOU         Activate source terms.
$
  F T T T F T 
$
$ Set parameters for numerical schemes -------------------------- $
$ - Time step information (this information is always read)
$     maximum global time step, maximum CFL time step for x-y and 
$     k-theta, minimum source term time step (all in seconds).
$
$ standard setup:  3600.  480. 1800.   30.
  500.  500.0  500.  500.
$
  &MISC FLAGTR = 4, CICE0 = 0.25, CICEN = 0.75 /
  &SBT1 GAMMA = -0.038 /
  &PRO2 DTIME = 0. /
$ &PRO3 WDTHCG = 0., WDTHTH = 0. /
  &PRO3 WDTHCG = 1.50, WDTHTH = 1.50 /
END OF NAMELISTS
$
  'RECT' T 'SMPL'
$
  720      361
  30.00    30.00   60.00
  0.0000    -90.0000        1.00
  -0.10   2.50  12  0.001000  1  1 (....)  NAME  '../input/bot.dat'
$ Sub-grid information
    13  0.010000  1  1 '(....)' 'NAME'  '../input/obs.dat'
$
$ FNMOC setup:  10 3 1 '(....)' 'PART' 'mapsta.inp' ! note that with this setup, there is no file mapsta.inp read in
  10 1 1 '(....)' 'PART' 'input'        
      0   0   F
      0   0   F
      0   0
$
$  Close list by defining line with 0 points (mandatory)
$
      0.      0.    0.    0.       0
$
$ End of input file
