$ --------------------------------------------------------------- $
$ WAVEWATCH III Grid preprocessor input file                      $
$ --------------------------------------------------------------- $
$
  'Arctic with source terms'
$
   1.1  0.0418 25  36  5.0
$
$
   F T T T F T
$            ^ source terms
$        ^ ^ direction and wavenumber prop
$    ^ ^ x and y prop
$  ^ dry run
$
$ Set parameters for numerical schemes -------------------------- $
$ - Time step information (this information is always read)
$     maximum global time step, maximum CFL time step for x-y and 
$     k-theta, minimum source term time step (all in seconds).
$ from calc_CFL.m, T=1/0.0368, Cg=25.447, I get dt=572 s
  500.  500.0  500.  500.
$
$ FLAGTR = 0 since no obstruction grid is used.
 &MISC FLAGTR = 0, CICE0 = 0.25, CICEN = 0.75 /
 &SBT1 GAMMA = -0.038 /
 &PRO2 DTIME = 0. /
 &PRO3 WDTHCG = 0., WDTHTH = 0. /
$
END OF NAMELISTS
$
  'CURV' T 'NONE'
  361  361
$ notes: after my experience from test case 6d, I have decided to transpose and fliplr my 361x361 grids. note that this will affect my specification of boundary points.
   20  1.0     0.0 1 1 '(....)' 'NAME' './../input/lon.361x361.TLR.dat'
   21  1.0     0.0 1 1 '(....)' 'NAME' './../input/lat.361x361.TLR.dat'
$ option 1: land above 88N:
$ -0.1 7.50 9 -1.0 1 1 '(....)' 'NAME' './../input/dep.361x361.TLR.dat' 
$ option 2: land above 89N: 
  -0.1 7.50 9 -1.0 1 1 '(....)' 'NAME' './../input_tps2/dep.361x361.89deg.TLR.dat' 
$
  10  1 1 '(....)' 'PART' 'input'        
$
$
$ Input boundary points from segment data ( FROM = PART ) ------------ $
$   An unlimited number of lines identifying points at which input
$   boundary conditions are to be defined. If the actual input data is
$   not defined in the actual wave model run, the initial conditions
$   will be applied as constant boundary conditions. Each line contains:
$     Discrete grid counters (IX,IY) of the active point and a
$     connect flag. If this flag is true, and the present and previous
$     point are on a grid line or diagonal, all intermediate points
$     are also defined as boundary points.
$
$ using deal_with_complaint_a_tps2.m with THRESHOLD=0.49 :
$ START: for ww3_grid.inp of inner grid
     1    1 F
     1  102 T 
     1  344 F
     1  361 T
    70  361 T 
   132  361 F
   185  361 T 
   302  361 F
   357  361 T 
   211    1 F
     1    1 T
$ END: for ww3_grid.inp of inner grid
$ full list:
$   1   1  T
$   1 361  T
$ 361 361  T
$ 361   1  T
$   1   1  T
$
$  Close list by defining point (0,0) (mandatory)
$
    0   0  F
$
$
$ Excluded grid points from segment data ( FROM != PART )
$   First defined as lines, identical to the definition of the input
$   boundary points, and closed the same way.
$
    0   0  F
$
$   Second, define a point in a closed body of sea points to remove
$   the entire body of sea points. Also close by point (0,0)
$
    0   0
$
$ Output boundary points --------------------------------------------- $
$ Note, these do
$ not need to be defined for data transfer between grids in the multi
$ grid driver.
$
$  Close list by defining line with 0 points (mandatory)
$
    0. 0. 0. 0.  0
$
$ -------------------------------------------------------------------- $
$ End of input file                                                    $
$ -------------------------------------------------------------------- $
