! -------------------------------------------------------------------- !
! WAVEWATCH III ww3_shel.nml - single-grid model                       !
! -------------------------------------------------------------------- !


! -------------------------------------------------------------------- !
! Define top-level model parameters via DOMAIN_NML namelist
! -------------------------------------------------------------------- !
&DOMAIN_NML
  DOMAIN%START   = '20120601 000000'
  DOMAIN%STOP    = '20120601 060000'
/

! -------------------------------------------------------------------- !
! Define each forcing via the INPUT_NML namelist
! -------------------------------------------------------------------- !
&INPUT_NML
/

! -------------------------------------------------------------------- !
! Define the output types point parameters via OUTPUT_TYPE_NML namelist
! -------------------------------------------------------------------- !
&OUTPUT_TYPE_NML
  TYPE%FIELD%LIST          = 'DPT HS T0M1 DIR SPR HIG EF P2L'
  TYPE%POINT%FILE          = '../input_OBST/points.list'
/

! -------------------------------------------------------------------- !
! Define output dates via OUTPUT_DATE_NML namelist
! -------------------------------------------------------------------- !
&OUTPUT_DATE_NML
  DATE%FIELD          = '20120600 000000' '60' '20120625 000000'
  DATE%POINT          = '20120600 000000' '60' '20120625 000000'
/

! -------------------------------------------------------------------- !
! Define homogeneous input via HOMOG_COUNT_NML and HOMOG_INPUT_NML namelist
! -------------------------------------------------------------------- !
&HOMOG_COUNT_NML
/

&HOMOG_INPUT_NML
/

! -------------------------------------------------------------------- !
! WAVEWATCH III - end of namelist                                      !
! -------------------------------------------------------------------- !
