$ WAVEWATCH III Initial conditions input file
$ -------------------------------------------
$ ITYPE: 1= GAUSSIAN
$          FP, SIP, THM, NCOS, XM, SIX, YM, SIY, HMAX
 1
   0.1  0.005  270. 10  0.0 0.02  0.0 200 2
EOF


