$ WAVEWATCH III Point output post-processing
$ ------------------------------------------
  19680606 120000   3600. 1
$
   1
   2
   3
   4
   5
   6
   7
   8
   9
  10
  11
  -1
$
   1
   2  -1.  0.  33  F
