$ WAVEWATCH III Grid output post-processing
$ -----------------------------------------
  19680606 000000 3600. 99
N
DPT WLV HS DIR
$
  3 0
$
 1 999 1 999 1 1
