$ WAVEWATCH III Wind preprocessing
$ --------------------------------
  'WND' 'LL' F T
  19680606 000000
$
 -43.0  44.0 175  62.5  82.0  40
$
  'UNIT' 2 1 '(..T..)' '(..F..)'
  10 'dummy_name '
$
    0.81    0.83    0.85    0.86    0.88    0.90    0.92    0.94    0.95    0.97
    1.00    1.02    1.04    1.06    1.09    1.11    1.13    1.16    1.19    1.21
    1.24    1.27    1.30    1.33    1.37    1.40    1.44    1.47    1.51    1.55
    1.59    1.63    1.67    1.72    1.76    1.81    1.86    1.91    1.97    2.02
    2.08    2.14    2.20    2.27    2.33    2.40    2.48    2.55    2.63    2.71
    2.80    2.89    2.98    3.07    3.17    3.28    3.39    3.50    3.61    3.74
    3.86    3.99    4.13    4.27    4.41    4.56    4.72    4.87    5.04    5.20
    5.37    5.54    5.71    5.89    6.06    6.23    6.39    6.55    6.71    6.85
    6.98    7.09    7.19    7.27    7.32    7.36    7.37    7.36    7.32    7.27
    7.19    7.09    6.98    6.85    6.71    6.55    6.39    6.23    6.06    5.89
    5.71    5.54    5.37    5.20    5.04    4.87    4.72    4.56    4.41    4.27
    4.13    3.99    3.86    3.74    3.61    3.50    3.39    3.28    3.17    3.07
    2.98    2.89    2.80    2.71    2.63    2.55    2.48    2.40    2.33    2.27
    2.20    2.14    2.08    2.02    1.97    1.91    1.86    1.81    1.76    1.72
    1.67    1.63    1.59    1.55    1.51    1.47    1.44    1.40    1.37    1.33
    1.30    1.27    1.24    1.21    1.19    1.16    1.13    1.11    1.09    1.06
    1.04    1.02    1.00    0.97    0.95    0.94    0.92    0.90    0.88    0.86
    0.85    0.83    0.81    0.80    0.78    0.79    0.80    0.82    0.84    0.85
    0.87    0.89    0.91    0.93    0.95    0.97    0.99    1.01    1.03    1.06
    1.08    1.10    1.13    1.16    1.18    1.21    1.24    1.27    1.30    1.34
    1.37    1.40    1.44    1.48    1.52    1.56    1.60    1.64    1.69    1.73
    1.78    1.83    1.88    1.94    1.99    2.05    2.11    2.18    2.24    2.31
    2.38    2.46    2.53    2.61    2.70    2.79    2.88    2.97    3.07    3.17
    3.28    3.39    3.51    3.63    3.76    3.89    4.03    4.17    4.32    4.48
    4.64    4.80    4.97    5.15    5.33    5.51    5.70    5.89    6.09    6.28
    6.47    6.66    6.84    7.01    7.17    7.32    7.45    7.57    7.66    7.72
    7.76    7.78    7.76    7.72    7.66    7.57    7.45    7.32    7.17    7.01
    6.84    6.66    6.47    6.28    6.09    5.89    5.70    5.51    5.33    5.15
    4.97    4.80    4.64    4.48    4.32    4.17    4.03    3.89    3.76    3.63
    3.51    3.39    3.28    3.17    3.07    2.97    2.88    2.79    2.70    2.61
    2.53    2.46    2.38    2.31    2.24    2.18    2.11    2.05    1.99    1.94
    1.88    1.83    1.78    1.73    1.69    1.64    1.60    1.56    1.52    1.48
    1.44    1.40    1.37    1.34    1.30    1.27    1.24    1.21    1.18    1.16
    1.13    1.10    1.08    1.06    1.03    1.01    0.99    0.97    0.95    0.93
    0.91    0.89    0.87    0.85    0.84    0.82    0.80    0.79    0.77    0.76
    0.76    0.78    0.79    0.81    0.83    0.84    0.86    0.88    0.90    0.92
    0.94    0.96    0.98    1.00    1.02    1.05    1.07    1.10    1.12    1.15
    1.18    1.21    1.24    1.27    1.30    1.33    1.37    1.40    1.44    1.48
    1.52    1.56    1.60    1.65    1.70    1.74    1.80    1.85    1.90    1.96
    2.02    2.08    2.14    2.21    2.28    2.35    2.43    2.51    2.59    2.68
    2.77    2.86    2.96    3.06    3.17    3.28    3.40    3.52    3.65    3.78
    3.92    4.06    4.22    4.37    4.54    4.71    4.89    5.07    5.26    5.46
    5.66    5.87    6.08    6.29    6.51    6.72    6.93    7.14    7.34    7.53
    7.70    7.85    7.99    8.09    8.17    8.22    8.24    8.22    8.17    8.09
    7.99    7.85    7.70    7.53    7.34    7.14    6.93    6.72    6.51    6.29
    6.08    5.87    5.66    5.46    5.26    5.07    4.89    4.71    4.54    4.37
    4.22    4.06    3.92    3.78    3.65    3.52    3.40    3.28    3.17    3.06
    2.96    2.86    2.77    2.68    2.59    2.51    2.43    2.35    2.28    2.21
    2.14    2.08    2.02    1.96    1.90    1.85    1.80    1.74    1.70    1.65
    1.60    1.56    1.52    1.48    1.44    1.40    1.37    1.33    1.30    1.27
    1.24    1.21    1.18    1.15    1.12    1.10    1.07    1.05    1.02    1.00
    0.98    0.96    0.94    0.92    0.90    0.88    0.86    0.84    0.83    0.81
    0.79    0.78    0.76    0.75    0.73    0.73    0.75    0.76    0.78    0.80
    0.81    0.83    0.85    0.87    0.89    0.90    0.93    0.95    0.97    0.99
    1.01    1.04    1.06    1.09    1.11    1.14    1.17    1.20    1.23    1.26
    1.30    1.33    1.37    1.40    1.44    1.48    1.52    1.56    1.61    1.66
    1.70    1.75    1.81    1.86    1.92    1.98    2.04    2.11    2.17    2.24
    2.32    2.39    2.47    2.56    2.65    2.74    2.84    2.94    3.04    3.15
    3.27    3.39    3.52    3.65    3.79    3.94    4.09    4.25    4.42    4.59
    4.77    4.97    5.16    5.37    5.58    5.81    6.03    6.27    6.51    6.75
    6.99    7.23    7.47    7.70    7.91    8.12    8.30    8.45    8.58    8.67
    8.73    8.75    8.73    8.67    8.58    8.45    8.30    8.12    7.91    7.70
    7.47    7.23    6.99    6.75    6.51    6.27    6.03    5.81    5.58    5.37
    5.16    4.97    4.77    4.59    4.42    4.25    4.09    3.94    3.79    3.65
    3.52    3.39    3.27    3.15    3.04    2.94    2.84    2.74    2.65    2.56
    2.47    2.39    2.32    2.24    2.17    2.11    2.04    1.98    1.92    1.86
    1.81    1.75    1.70    1.66    1.61    1.56    1.52    1.48    1.44    1.40
    1.37    1.33    1.30    1.26    1.23    1.20    1.17    1.14    1.11    1.09
    1.06    1.04    1.01    0.99    0.97    0.95    0.93    0.90    0.89    0.87
    0.85    0.83    0.81    0.80    0.78    0.76    0.75    0.73    0.72    0.70
    0.70    0.72    0.73    0.75    0.76    0.78    0.80    0.81    0.83    0.85
    0.87    0.89    0.91    0.93    0.95    0.98    1.00    1.02    1.05    1.08
    1.10    1.13    1.16    1.19    1.22    1.25    1.29    1.32    1.36    1.40
    1.44    1.48    1.52    1.56    1.61    1.66    1.71    1.76    1.82    1.87
    1.93    2.00    2.06    2.13    2.20    2.27    2.35    2.43    2.52    2.61
    2.70    2.80    2.91    3.01    3.13    3.25    3.37    3.51    3.64    3.79
    3.94    4.10    4.27    4.45    4.64    4.83    5.04    5.25    5.47    5.71
    5.95    6.20    6.46    6.72    7.00    7.27    7.55    7.82    8.08    8.34
    8.57    8.79    8.98    9.13    9.24    9.31    9.33    9.31    9.24    9.13
    8.98    8.79    8.57    8.34    8.08    7.82    7.55    7.27    7.00    6.72
    6.46    6.20    5.95    5.71    5.47    5.25    5.04    4.83    4.64    4.45
    4.27    4.10    3.94    3.79    3.64    3.51    3.37    3.25    3.13    3.01
    2.91    2.80    2.70    2.61    2.52    2.43    2.35    2.27    2.20    2.13
    2.06    2.00    1.93    1.87    1.82    1.76    1.71    1.66    1.61    1.56
    1.52    1.48    1.44    1.40    1.36    1.32    1.29    1.25    1.22    1.19
    1.16    1.13    1.10    1.08    1.05    1.02    1.00    0.98    0.95    0.93
    0.91    0.89    0.87    0.85    0.83    0.81    0.80    0.78    0.76    0.75
    0.73    0.72    0.70    0.69    0.67    0.67    0.68    0.70    0.71    0.73
    0.75    0.76    0.78    0.80    0.81    0.83    0.85    0.87    0.89    0.91
    0.94    0.96    0.98    1.01    1.03    1.06    1.09    1.11    1.14    1.18
    1.21    1.24    1.27    1.31    1.35    1.39    1.43    1.47    1.51    1.56
    1.61    1.66    1.71    1.76    1.82    1.88    1.94    2.01    2.08    2.15
    2.22    2.30    2.38    2.47    2.56    2.66    2.76    2.86    2.98    3.09
    3.22    3.35    3.48    3.63    3.78    3.94    4.11    4.28    4.47    4.67
    4.88    5.10    5.33    5.57    5.82    6.09    6.36    6.65    6.95    7.25
    7.56    7.88    8.19    8.50    8.80    9.08    9.34    9.56    9.75    9.89
    9.97   10.00    9.97    9.89    9.75    9.56    9.34    9.08    8.80    8.50
    8.19    7.88    7.56    7.25    6.95    6.65    6.36    6.09    5.82    5.57
    5.33    5.10    4.88    4.67    4.47    4.28    4.11    3.94    3.78    3.63
    3.48    3.35    3.22    3.09    2.98    2.86    2.76    2.66    2.56    2.47
    2.38    2.30    2.22    2.15    2.08    2.01    1.94    1.88    1.82    1.76
    1.71    1.66    1.61    1.56    1.51    1.47    1.43    1.39    1.35    1.31
    1.27    1.24    1.21    1.18    1.14    1.11    1.09    1.06    1.03    1.01
    0.98    0.96    0.94    0.91    0.89    0.87    0.85    0.83    0.81    0.80
    0.78    0.76    0.75    0.73    0.71    0.70    0.68    0.67    0.66    0.64
    0.64    0.65    0.66    0.68    0.69    0.71    0.72    0.74    0.76    0.77
    0.79    0.81    0.83    0.85    0.87    0.89    0.91    0.94    0.96    0.99
    1.01    1.04    1.07    1.10    1.12    1.16    1.19    1.22    1.26    1.29
    1.33    1.37    1.41    1.46    1.50    1.55    1.60    1.65    1.70    1.76
    1.82    1.88    1.95    2.02    2.09    2.16    2.24    2.32    2.41    2.50
    2.60    2.70    2.81    2.92    3.04    3.17    3.30    3.44    3.59    3.75
    3.92    4.09    4.28    4.48    4.69    4.91    5.14    5.39    5.65    5.92
    6.21    6.52    6.84    7.17    7.51    7.87    8.23    8.59    8.96    9.31
    9.65    9.96   10.23   10.46   10.63   10.73   10.77   10.73   10.63   10.46
   10.23    9.96    9.65    9.31    8.96    8.59    8.23    7.87    7.51    7.17
    6.84    6.52    6.21    5.92    5.65    5.39    5.14    4.91    4.69    4.48
    4.28    4.09    3.92    3.75    3.59    3.44    3.30    3.17    3.04    2.92
    2.81    2.70    2.60    2.50    2.41    2.32    2.24    2.16    2.09    2.02
    1.95    1.88    1.82    1.76    1.70    1.65    1.60    1.55    1.50    1.46
    1.41    1.37    1.33    1.29    1.26    1.22    1.19    1.16    1.12    1.10
    1.07    1.04    1.01    0.99    0.96    0.94    0.91    0.89    0.87    0.85
    0.83    0.81    0.79    0.77    0.76    0.74    0.72    0.71    0.69    0.68
    0.66    0.65    0.64    0.62    0.61    0.60    0.61    0.63    0.64    0.65
    0.67    0.68    0.70    0.72    0.73    0.75    0.77    0.79    0.81    0.83
    0.85    0.87    0.89    0.91    0.94    0.96    0.99    1.01    1.04    1.07
    1.10    1.13    1.16    1.20    1.23    1.27    1.31    1.35    1.39    1.44
    1.48    1.53    1.58    1.64    1.69    1.75    1.81    1.88    1.94    2.02
    2.09    2.17    2.25    2.34    2.43    2.53    2.63    2.74    2.86    2.98
    3.11    3.24    3.39    3.54    3.71    3.88    4.06    4.26    4.46    4.68
    4.92    5.17    5.43    5.71    6.01    6.33    6.66    7.02    7.39    7.77
    8.18    8.59    9.02    9.45    9.87   10.27   10.65   10.99   11.27   11.49
   11.62   11.67   11.62   11.49   11.27   10.99   10.65   10.27    9.87    9.45
    9.02    8.59    8.18    7.77    7.39    7.02    6.66    6.33    6.01    5.71
    5.43    5.17    4.92    4.68    4.46    4.26    4.06    3.88    3.71    3.54
    3.39    3.24    3.11    2.98    2.86    2.74    2.63    2.53    2.43    2.34
    2.25    2.17    2.09    2.02    1.94    1.88    1.81    1.75    1.69    1.64
    1.58    1.53    1.48    1.44    1.39    1.35    1.31    1.27    1.23    1.20
    1.16    1.13    1.10    1.07    1.04    1.01    0.99    0.96    0.94    0.91
    0.89    0.87    0.85    0.83    0.81    0.79    0.77    0.75    0.73    0.72
    0.70    0.68    0.67    0.65    0.64    0.63    0.61    0.60    0.59    0.58
    0.56    0.57    0.59    0.60    0.61    0.63    0.64    0.66    0.67    0.69
    0.70    0.72    0.74    0.76    0.78    0.80    0.82    0.84    0.86    0.88
    0.91    0.93    0.96    0.98    1.01    1.04    1.07    1.10    1.13    1.17
    1.21    1.24    1.28    1.32    1.37    1.41    1.46    1.51    1.56    1.61
    1.67    1.73    1.80    1.86    1.93    2.01    2.09    2.17    2.26    2.35
    2.45    2.55    2.66    2.77    2.90    3.03    3.17    3.32    3.47    3.64
    3.82    4.01    4.21    4.43    4.66    4.91    5.17    5.45    5.76    6.08
    6.42    6.79    7.18    7.59    8.03    8.49    8.97    9.47    9.97   10.48
   10.97   11.44   11.86   12.22   12.50   12.67   12.73   12.67   12.50   12.22
   11.86   11.44   10.97   10.48    9.97    9.47    8.97    8.49    8.03    7.59
    7.18    6.79    6.42    6.08    5.76    5.45    5.17    4.91    4.66    4.43
    4.21    4.01    3.82    3.64    3.47    3.32    3.17    3.03    2.90    2.77
    2.66    2.55    2.45    2.35    2.26    2.17    2.09    2.01    1.93    1.86
    1.80    1.73    1.67    1.61    1.56    1.51    1.46    1.41    1.37    1.32
    1.28    1.24    1.21    1.17    1.13    1.10    1.07    1.04    1.01    0.98
    0.96    0.93    0.91    0.88    0.86    0.84    0.82    0.80    0.78    0.76
    0.74    0.72    0.70    0.69    0.67    0.66    0.64    0.63    0.61    0.60
    0.59    0.57    0.56    0.55    0.54    0.52    0.53    0.55    0.56    0.57
    0.58    0.60    0.61    0.63    0.64    0.66    0.67    0.69    0.71    0.72
    0.74    0.76    0.78    0.80    0.82    0.85    0.87    0.89    0.92    0.95
    0.97    1.00    1.03    1.06    1.10    1.13    1.17    1.21    1.25    1.29
    1.33    1.38    1.42    1.47    1.53    1.58    1.64    1.70    1.77    1.84
    1.91    1.99    2.07    2.16    2.25    2.34    2.45    2.56    2.67    2.80
    2.93    3.07    3.22    3.38    3.55    3.73    3.93    4.14    4.36    4.60
    4.86    5.14    5.44    5.76    6.11    6.49    6.89    7.32    7.78    8.27
    8.80    9.35    9.93   10.53   11.14   11.75   12.34   12.87   13.34   13.70
   13.92   14.00   13.92   13.70   13.34   12.87   12.34   11.75   11.14   10.53
    9.93    9.35    8.80    8.27    7.78    7.32    6.89    6.49    6.11    5.76
    5.44    5.14    4.86    4.60    4.36    4.14    3.93    3.73    3.55    3.38
    3.22    3.07    2.93    2.80    2.67    2.56    2.45    2.34    2.25    2.16
    2.07    1.99    1.91    1.84    1.77    1.70    1.64    1.58    1.53    1.47
    1.42    1.38    1.33    1.29    1.25    1.21    1.17    1.13    1.10    1.06
    1.03    1.00    0.97    0.95    0.92    0.89    0.87    0.85    0.82    0.80
    0.78    0.76    0.74    0.72    0.71    0.69    0.67    0.66    0.64    0.63
    0.61    0.60    0.58    0.57    0.56    0.55    0.53    0.52    0.51    0.50
    0.48    0.49    0.50    0.51    0.52    0.54    0.55    0.56    0.58    0.59
    0.60    0.62    0.63    0.65    0.67    0.68    0.70    0.72    0.74    0.76
    0.78    0.80    0.83    0.85    0.88    0.90    0.93    0.96    0.99    1.02
    1.05    1.09    1.12    1.16    1.20    1.24    1.28    1.33    1.38    1.43
    1.48    1.54    1.60    1.66    1.73    1.80    1.87    1.95    2.04    2.13
    2.22    2.32    2.43    2.55    2.67    2.80    2.94    3.09    3.25    3.43
    3.61    3.81    4.03    4.26    4.51    4.78    5.07    5.39    5.73    6.10
    6.51    6.94    7.42    7.93    8.48    9.08    9.72   10.40   11.12   11.86
   12.62   13.36   14.05   14.66   15.14   15.45   15.56   15.45   15.14   14.66
   14.05   13.36   12.62   11.86   11.12   10.40    9.72    9.08    8.48    7.93
    7.42    6.94    6.51    6.10    5.73    5.39    5.07    4.78    4.51    4.26
    4.03    3.81    3.61    3.43    3.25    3.09    2.94    2.80    2.67    2.55
    2.43    2.32    2.22    2.13    2.04    1.95    1.87    1.80    1.73    1.66
    1.60    1.54    1.48    1.43    1.38    1.33    1.28    1.24    1.20    1.16
    1.12    1.09    1.05    1.02    0.99    0.96    0.93    0.90    0.88    0.85
    0.83    0.80    0.78    0.76    0.74    0.72    0.70    0.68    0.67    0.65
    0.63    0.62    0.60    0.59    0.58    0.56    0.55    0.54    0.52    0.51
    0.50    0.49    0.48    0.47    0.46    0.44    0.45    0.46    0.47    0.48
    0.49    0.50    0.51    0.52    0.54    0.55    0.56    0.58    0.59    0.61
    0.62    0.64    0.66    0.68    0.69    0.71    0.73    0.76    0.78    0.80
    0.83    0.85    0.88    0.91    0.93    0.97    1.00    1.03    1.07    1.10
    1.14    1.18    1.23    1.27    1.32    1.37    1.42    1.48    1.54    1.61
    1.67    1.74    1.82    1.90    1.99    2.08    2.18    2.28    2.40    2.52
    2.65    2.79    2.93    3.09    3.27    3.45    3.66    3.88    4.11    4.37
    4.65    4.95    5.28    5.64    6.04    6.47    6.94    7.46    8.03    8.65
    9.32   10.06   10.86   11.71   12.62   13.57   14.52   15.43   16.25   16.92
   17.35   17.50   17.35   16.92   16.25   15.43   14.52   13.57   12.62   11.71
   10.86   10.06    9.32    8.65    8.03    7.46    6.94    6.47    6.04    5.64
    5.28    4.95    4.65    4.37    4.11    3.88    3.66    3.45    3.27    3.09
    2.93    2.79    2.65    2.52    2.40    2.28    2.18    2.08    1.99    1.90
    1.82    1.74    1.67    1.61    1.54    1.48    1.42    1.37    1.32    1.27
    1.23    1.18    1.14    1.10    1.07    1.03    1.00    0.96    0.93    0.91
    0.88    0.85    0.83    0.80    0.78    0.76    0.73    0.71    0.69    0.68
    0.66    0.64    0.62    0.61    0.59    0.58    0.56    0.55    0.54    0.52
    0.51    0.50    0.49    0.48    0.47    0.46    0.45    0.44    0.43    0.42
    0.39    0.40    0.41    0.42    0.43    0.44    0.45    0.46    0.47    0.48
    0.49    0.50    0.52    0.53    0.54    0.56    0.57    0.59    0.61    0.62
    0.64    0.66    0.68    0.70    0.72    0.74    0.77    0.79    0.82    0.84
    0.87    0.90    0.93    0.96    1.00    1.03    1.07    1.11    1.15    1.20
    1.25    1.30    1.35    1.40    1.46    1.53    1.60    1.67    1.74    1.83
    1.91    2.01    2.11    2.22    2.33    2.46    2.59    2.74    2.90    3.07
    3.25    3.45    3.67    3.91    4.17    4.45    4.76    5.11    5.48    5.90
    6.36    6.86    7.42    8.04    8.73    9.49   10.34   11.27   12.29   13.40
   14.59   15.82   17.05   18.19   19.14   19.78   20.00   19.78   19.14   18.19
   17.05   15.82   14.59   13.40   12.29   11.27   10.34    9.49    8.73    8.04
    7.42    6.86    6.36    5.90    5.48    5.11    4.76    4.45    4.17    3.91
    3.67    3.45    3.25    3.07    2.90    2.74    2.59    2.46    2.33    2.22
    2.11    2.01    1.91    1.83    1.74    1.67    1.60    1.53    1.46    1.40
    1.35    1.30    1.25    1.20    1.15    1.11    1.07    1.03    1.00    0.96
    0.93    0.90    0.87    0.84    0.82    0.79    0.77    0.74    0.72    0.70
    0.68    0.66    0.64    0.62    0.61    0.59    0.57    0.56    0.54    0.53
    0.52    0.50    0.49    0.48    0.47    0.46    0.45    0.44    0.43    0.42
    0.41    0.40    0.39    0.38    0.37    0.34    0.35    0.36    0.36    0.37
    0.38    0.39    0.40    0.41    0.42    0.43    0.44    0.45    0.46    0.48
    0.49    0.50    0.52    0.53    0.55    0.56    0.58    0.60    0.61    0.63
    0.65    0.67    0.70    0.72    0.74    0.77    0.79    0.82    0.85    0.88
    0.91    0.95    0.99    1.02    1.06    1.11    1.15    1.20    1.25    1.31
    1.37    1.43    1.49    1.56    1.64    1.72    1.81    1.90    2.01    2.12
    2.23    2.36    2.50    2.65    2.81    2.99    3.19    3.40    3.64    3.89
    4.18    4.49    4.84    5.22    5.65    6.13    6.66    7.26    7.93    8.69
    9.54   10.50   11.58   12.80   14.16   15.65   17.27   18.95   20.59   22.00
   22.98   23.33   22.98   22.00   20.59   18.95   17.27   15.65   14.16   12.80
   11.58   10.50    9.54    8.69    7.93    7.26    6.66    6.13    5.65    5.22
    4.84    4.49    4.18    3.89    3.64    3.40    3.19    2.99    2.81    2.65
    2.50    2.36    2.23    2.12    2.01    1.90    1.81    1.72    1.64    1.56
    1.49    1.43    1.37    1.31    1.25    1.20    1.15    1.11    1.06    1.02
    0.98    0.95    0.91    0.88    0.85    0.82    0.79    0.77    0.74    0.72
    0.70    0.67    0.65    0.63    0.61    0.60    0.58    0.56    0.55    0.53
    0.52    0.50    0.49    0.48    0.46    0.45    0.44    0.43    0.42    0.41
    0.40    0.39    0.38    0.37    0.36    0.36    0.35    0.34    0.33    0.33
    0.29    0.30    0.30    0.31    0.32    0.32    0.33    0.34    0.35    0.36
    0.37    0.38    0.39    0.40    0.41    0.42    0.43    0.44    0.45    0.47
    0.48    0.49    0.51    0.53    0.54    0.56    0.58    0.60    0.62    0.64
    0.66    0.68    0.70    0.73    0.76    0.79    0.82    0.85    0.88    0.92
    0.95    0.99    1.04    1.08    1.13    1.18    1.24    1.30    1.36    1.43
    1.50    1.58    1.67    1.76    1.86    1.97    2.08    2.21    2.35    2.50
    2.67    2.86    3.06    3.28    3.53    3.81    4.11    4.45    4.84    5.27
    5.75    6.30    6.93    7.64    8.45    9.39   10.46   11.70   13.13   14.78
   16.67   18.81   21.14   23.56   25.78   27.40   28.00   27.40   25.78   23.56
   21.14   18.81   16.67   14.78   13.13   11.70   10.46    9.39    8.45    7.64
    6.93    6.30    5.75    5.27    4.84    4.45    4.11    3.81    3.53    3.28
    3.06    2.86    2.67    2.50    2.35    2.21    2.08    1.97    1.86    1.76
    1.67    1.58    1.50    1.43    1.36    1.30    1.24    1.18    1.13    1.08
    1.04    0.99    0.95    0.92    0.88    0.85    0.82    0.79    0.76    0.73
    0.70    0.68    0.66    0.64    0.62    0.60    0.58    0.56    0.54    0.53
    0.51    0.49    0.48    0.47    0.45    0.44    0.43    0.42    0.41    0.40
    0.39    0.38    0.37    0.36    0.35    0.34    0.33    0.32    0.32    0.31
    0.30    0.30    0.29    0.28    0.28    0.24    0.24    0.25    0.25    0.26
    0.26    0.27    0.28    0.28    0.29    0.30    0.31    0.31    0.32    0.33
    0.34    0.35    0.36    0.37    0.38    0.39    0.40    0.42    0.43    0.44
    0.46    0.47    0.49    0.50    0.52    0.54    0.56    0.58    0.60    0.62
    0.65    0.67    0.70    0.73    0.76    0.79    0.82    0.86    0.90    0.94
    0.98    1.03    1.08    1.13    1.19    1.25    1.32    1.40    1.48    1.56
    1.66    1.76    1.87    1.99    2.13    2.28    2.45    2.63    2.83    3.06
    3.31    3.60    3.92    4.29    4.70    5.18    5.72    6.35    7.08    7.92
    8.92   10.09   11.47   13.12   15.09   17.45   20.26   23.54   27.20   30.90
   33.84   35.00   33.84   30.90   27.20   23.54   20.26   17.45   15.09   13.12
   11.47   10.09    8.92    7.92    7.08    6.35    5.72    5.18    4.70    4.29
    3.92    3.60    3.31    3.06    2.83    2.63    2.45    2.28    2.13    1.99
    1.87    1.76    1.66    1.56    1.48    1.40    1.32    1.25    1.19    1.13
    1.08    1.03    0.98    0.94    0.90    0.86    0.82    0.79    0.76    0.73
    0.70    0.67    0.65    0.62    0.60    0.58    0.56    0.54    0.52    0.50
    0.49    0.47    0.46    0.44    0.43    0.42    0.40    0.39    0.38    0.37
    0.36    0.35    0.34    0.33    0.32    0.31    0.31    0.30    0.29    0.28
    0.28    0.27    0.26    0.26    0.25    0.25    0.24    0.24    0.23    0.22
    0.18    0.18    0.19    0.19    0.20    0.20    0.21    0.21    0.22    0.22
    0.23    0.23    0.24    0.25    0.25    0.26    0.27    0.28    0.28    0.29
    0.30    0.31    0.32    0.33    0.34    0.35    0.36    0.37    0.39    0.40
    0.41    0.43    0.44    0.46    0.48    0.50    0.52    0.54    0.56    0.58
    0.61    0.63    0.66    0.69    0.73    0.76    0.80    0.84    0.88    0.93
    0.98    1.03    1.09    1.15    1.22    1.30    1.38    1.48    1.58    1.69
    1.81    1.95    2.10    2.27    2.47    2.68    2.93    3.21    3.54    3.91
    4.34    4.84    5.43    6.12    6.95    7.95    9.15   10.63   12.13   12.92
   13.95   15.32   17.13   19.50   22.34   25.04   26.25   25.04   22.34   19.50
   17.13   15.32   13.95   12.92   12.13   10.63    9.15    7.95    6.95    6.12
    5.43    4.84    4.34    3.91    3.54    3.21    2.93    2.68    2.47    2.27
    2.10    1.95    1.81    1.69    1.58    1.48    1.38    1.30    1.22    1.15
    1.09    1.03    0.98    0.93    0.88    0.84    0.80    0.76    0.73    0.69
    0.66    0.63    0.61    0.58    0.56    0.54    0.52    0.50    0.48    0.46
    0.44    0.43    0.41    0.40    0.39    0.37    0.36    0.35    0.34    0.33
    0.32    0.31    0.30    0.29    0.28    0.28    0.27    0.26    0.25    0.25
    0.24    0.23    0.23    0.22    0.22    0.21    0.21    0.20    0.20    0.19
    0.19    0.18    0.18    0.18    0.17    0.12    0.12    0.13    0.13    0.13
    0.14    0.14    0.14    0.15    0.15    0.15    0.16    0.16    0.17    0.17
    0.18    0.18    0.19    0.19    0.20    0.20    0.21    0.22    0.22    0.23
    0.24    0.25    0.25    0.26    0.27    0.28    0.29    0.30    0.31    0.33
    0.34    0.35    0.37    0.38    0.40    0.42    0.43    0.45    0.47    0.50
    0.52    0.55    0.57    0.60    0.64    0.67    0.71    0.75    0.80    0.85
    0.90    0.96    1.03    1.10    1.18    1.27    1.37    1.48    1.61    1.75
    1.91    2.10    2.31    2.56    2.85    3.19    3.59    4.07    4.65    5.35
    6.23    6.43    6.61    6.86    7.18    7.64    8.29    9.27   10.75   12.98
   15.85   17.50   15.85   12.98   10.75    9.27    8.29    7.64    7.18    6.86
    6.61    6.43    6.23    5.35    4.65    4.07    3.59    3.19    2.85    2.56
    2.31    2.10    1.91    1.75    1.61    1.48    1.37    1.27    1.18    1.10
    1.03    0.96    0.90    0.85    0.80    0.75    0.71    0.67    0.64    0.60
    0.57    0.55    0.52    0.50    0.47    0.45    0.43    0.42    0.40    0.38
    0.37    0.35    0.34    0.33    0.31    0.30    0.29    0.28    0.27    0.26
    0.25    0.25    0.24    0.23    0.22    0.22    0.21    0.20    0.20    0.19
    0.19    0.18    0.18    0.17    0.17    0.16    0.16    0.15    0.15    0.15
    0.14    0.14    0.14    0.13    0.13    0.13    0.12    0.12    0.12    0.12
    0.06    0.06    0.06    0.07    0.07    0.07    0.07    0.07    0.07    0.08
    0.08    0.08    0.08    0.09    0.09    0.09    0.09    0.10    0.10    0.10
    0.10    0.11    0.11    0.11    0.12    0.12    0.13    0.13    0.13    0.14
    0.14    0.15    0.15    0.16    0.17    0.17    0.18    0.19    0.19    0.20
    0.21    0.22    0.23    0.24    0.25    0.27    0.28    0.29    0.31    0.33
    0.34    0.36    0.39    0.41    0.44    0.46    0.49    0.53    0.57    0.61
    0.66    0.71    0.77    0.84    0.91    1.00    1.10    1.22    1.36    1.52
    1.71    1.94    2.22    2.56    2.82    2.84    2.86    2.89    2.93    2.98
    3.06    3.19    3.40    3.80    4.62    6.48    8.74    6.48    4.62    3.80
    3.40    3.19    3.06    2.98    2.93    2.89    2.86    2.84    2.82    2.56
    2.22    1.94    1.71    1.52    1.36    1.22    1.10    1.00    0.91    0.84
    0.77    0.71    0.66    0.61    0.57    0.53    0.49    0.46    0.44    0.41
    0.39    0.36    0.34    0.33    0.31    0.29    0.28    0.27    0.25    0.24
    0.23    0.22    0.21    0.20    0.19    0.19    0.18    0.17    0.17    0.16
    0.15    0.15    0.14    0.14    0.13    0.13    0.13    0.12    0.12    0.11
    0.11    0.11    0.10    0.10    0.10    0.10    0.09    0.09    0.09    0.09
    0.08    0.08    0.08    0.08    0.07    0.07    0.07    0.07    0.07    0.07
    0.06    0.06    0.06    0.06    0.06    0.00    0.00    0.00    0.00    0.00
    0.00    0.00    0.00    0.00    0.00    0.00    0.00    0.00    0.00    0.00
    0.00    0.00    0.00    0.00    0.00    0.00    0.00    0.00    0.00    0.00
    0.00    0.00    0.00    0.00    0.00    0.00    0.00    0.00    0.00    0.00
    0.00    0.00    0.00    0.00    0.00    0.00    0.00    0.00    0.00    0.00
    0.00    0.00    0.00    0.00    0.00    0.00    0.00    0.00    0.00    0.00
    0.00    0.00    0.00    0.00    0.00    0.00    0.00    0.00    0.00    0.00
    0.00    0.00    0.00    0.00    0.00    0.00    0.00    0.00    0.00    0.00
    0.00    0.00    0.00    0.00    0.00    0.00    0.00    0.00    0.00    0.00
    0.00    0.00    0.00    0.00    0.00    0.00    0.00    0.00    0.00    0.00
    0.00    0.00    0.00    0.00    0.00    0.00    0.00    0.00    0.00    0.00
    0.00    0.00    0.00    0.00    0.00    0.00    0.00    0.00    0.00    0.00
    0.00    0.00    0.00    0.00    0.00    0.00    0.00    0.00    0.00    0.00
    0.00    0.00    0.00    0.00    0.00    0.00    0.00    0.00    0.00    0.00
    0.00    0.00    0.00    0.00    0.00    0.00    0.00    0.00    0.00    0.00
    0.00    0.00    0.00    0.00    0.00    0.00    0.00    0.00    0.00    0.00
    0.00    0.00    0.00    0.00    0.00    0.00    0.00    0.00    0.00    0.00
    0.00    0.00    0.00    0.00    0.00    0.00    0.00    0.00    0.00    0.00
   -0.06   -0.06   -0.07   -0.07   -0.07   -0.07   -0.07   -0.07   -0.08   -0.08
   -0.08   -0.08   -0.09   -0.09   -0.09   -0.09   -0.09   -0.10   -0.10   -0.10
   -0.11   -0.11   -0.11   -0.12   -0.12   -0.12   -0.13   -0.13   -0.14   -0.14
   -0.15   -0.15   -0.16   -0.16   -0.17   -0.18   -0.18   -0.19   -0.20   -0.21
   -0.22   -0.23   -0.24   -0.25   -0.26   -0.27   -0.29   -0.30   -0.32   -0.34
   -0.35   -0.37   -0.40   -0.42   -0.45   -0.48   -0.51   -0.54   -0.58   -0.63
   -0.67   -0.73   -0.79   -0.86   -0.94   -1.03   -1.13   -1.25   -1.39   -1.56
   -1.76   -1.99   -2.28   -2.63   -2.75   -2.77   -2.79   -2.82   -2.86   -2.92
   -3.00   -3.13   -3.35   -3.75   -4.58   -6.47   -8.74   -6.47   -4.58   -3.75
   -3.35   -3.13   -3.00   -2.92   -2.86   -2.82   -2.79   -2.77   -2.75   -2.63
   -2.28   -1.99   -1.76   -1.56   -1.39   -1.25   -1.13   -1.03   -0.94   -0.86
   -0.79   -0.73   -0.67   -0.63   -0.58   -0.54   -0.51   -0.48   -0.45   -0.42
   -0.40   -0.37   -0.35   -0.34   -0.32   -0.30   -0.29   -0.27   -0.26   -0.25
   -0.24   -0.23   -0.22   -0.21   -0.20   -0.19   -0.18   -0.18   -0.17   -0.16
   -0.16   -0.15   -0.15   -0.14   -0.14   -0.13   -0.13   -0.12   -0.12   -0.12
   -0.11   -0.11   -0.11   -0.10   -0.10   -0.10   -0.09   -0.09   -0.09   -0.09
   -0.09   -0.08   -0.08   -0.08   -0.08   -0.07   -0.07   -0.07   -0.07   -0.07
   -0.07   -0.06   -0.06   -0.06   -0.06   -0.13   -0.13   -0.13   -0.14   -0.14
   -0.14   -0.15   -0.15   -0.16   -0.16   -0.16   -0.17   -0.17   -0.18   -0.18
   -0.19   -0.19   -0.20   -0.20   -0.21   -0.22   -0.22   -0.23   -0.24   -0.24
   -0.25   -0.26   -0.27   -0.28   -0.29   -0.30   -0.31   -0.32   -0.33   -0.34
   -0.36   -0.37   -0.39   -0.40   -0.42   -0.44   -0.46   -0.48   -0.50   -0.52
   -0.55   -0.58   -0.61   -0.64   -0.67   -0.71   -0.75   -0.79   -0.84   -0.89
   -0.95   -1.01   -1.08   -1.16   -1.24   -1.33   -1.44   -1.56   -1.69   -1.84
   -2.01   -2.20   -2.42   -2.68   -2.98   -3.34   -3.75   -4.25   -4.85   -5.58
   -6.05   -6.19   -6.38   -6.64   -6.98   -7.45   -8.13   -9.13  -10.65  -12.92
  -15.83  -17.50  -15.83  -12.92  -10.65   -9.13   -8.13   -7.45   -6.98   -6.64
   -6.39   -6.19   -6.05   -5.58   -4.85   -4.25   -3.75   -3.34   -2.98   -2.68
   -2.42   -2.20   -2.01   -1.84   -1.69   -1.56   -1.44   -1.33   -1.24   -1.16
   -1.08   -1.01   -0.95   -0.89   -0.84   -0.79   -0.75   -0.71   -0.67   -0.64
   -0.61   -0.58   -0.55   -0.52   -0.50   -0.48   -0.46   -0.44   -0.42   -0.40
   -0.39   -0.37   -0.36   -0.34   -0.33   -0.32   -0.31   -0.30   -0.29   -0.28
   -0.27   -0.26   -0.25   -0.24   -0.24   -0.23   -0.22   -0.22   -0.21   -0.20
   -0.20   -0.19   -0.19   -0.18   -0.18   -0.17   -0.17   -0.16   -0.16   -0.16
   -0.15   -0.15   -0.14   -0.14   -0.14   -0.13   -0.13   -0.13   -0.13   -0.12
   -0.19   -0.20   -0.20   -0.21   -0.21   -0.22   -0.22   -0.23   -0.23   -0.24
   -0.25   -0.25   -0.26   -0.27   -0.27   -0.28   -0.29   -0.30   -0.31   -0.32
   -0.33   -0.34   -0.35   -0.36   -0.37   -0.38   -0.39   -0.40   -0.42   -0.43
   -0.45   -0.46   -0.48   -0.50   -0.52   -0.54   -0.56   -0.58   -0.60   -0.63
   -0.66   -0.69   -0.72   -0.75   -0.78   -0.82   -0.86   -0.90   -0.95   -1.00
   -1.05   -1.11   -1.17   -1.24   -1.32   -1.40   -1.49   -1.59   -1.69   -1.81
   -1.94   -2.09   -2.25   -2.44   -2.64   -2.87   -3.13   -3.43   -3.76   -4.15
   -4.60   -5.12   -5.73   -6.45   -7.30   -8.32   -9.54  -11.03  -11.74  -12.57
  -13.64  -15.06  -16.93  -19.36  -22.26  -25.02  -26.25  -25.02  -22.26  -19.36
  -16.93  -15.06  -13.64  -12.57  -11.74  -11.03   -9.54   -8.32   -7.30   -6.45
   -5.73   -5.12   -4.60   -4.15   -3.76   -3.43   -3.13   -2.87   -2.64   -2.44
   -2.25   -2.09   -1.94   -1.81   -1.69   -1.59   -1.49   -1.40   -1.32   -1.24
   -1.17   -1.11   -1.05   -1.00   -0.95   -0.90   -0.86   -0.82   -0.78   -0.75
   -0.72   -0.69   -0.66   -0.63   -0.60   -0.58   -0.56   -0.54   -0.52   -0.50
   -0.48   -0.46   -0.45   -0.43   -0.42   -0.40   -0.39   -0.38   -0.37   -0.36
   -0.35   -0.34   -0.33   -0.32   -0.31   -0.30   -0.29   -0.28   -0.27   -0.27
   -0.26   -0.25   -0.25   -0.24   -0.23   -0.23   -0.22   -0.22   -0.21   -0.21
   -0.20   -0.20   -0.19   -0.19   -0.19   -0.26   -0.27   -0.27   -0.28   -0.29
   -0.29   -0.30   -0.31   -0.32   -0.32   -0.33   -0.34   -0.35   -0.36   -0.37
   -0.38   -0.39   -0.40   -0.41   -0.42   -0.44   -0.45   -0.46   -0.48   -0.49
   -0.51   -0.52   -0.54   -0.56   -0.58   -0.60   -0.62   -0.64   -0.66   -0.69
   -0.72   -0.74   -0.77   -0.80   -0.84   -0.87   -0.91   -0.95   -0.99   -1.03
   -1.08   -1.13   -1.19   -1.25   -1.31   -1.38   -1.45   -1.53   -1.62   -1.71
   -1.82   -1.93   -2.05   -2.18   -2.33   -2.49   -2.66   -2.86   -3.07   -3.31
   -3.58   -3.88   -4.22   -4.60   -5.03   -5.52   -6.08   -6.73   -7.47   -8.33
   -9.33  -10.50  -11.88  -13.52  -15.46  -17.78  -20.54  -23.76  -27.35  -30.98
  -33.86  -35.00  -33.86  -30.98  -27.35  -23.76  -20.54  -17.78  -15.46  -13.52
  -11.88  -10.50   -9.33   -8.33   -7.47   -6.73   -6.08   -5.52   -5.03   -4.60
   -4.22   -3.88   -3.58   -3.31   -3.07   -2.86   -2.66   -2.49   -2.33   -2.18
   -2.05   -1.93   -1.82   -1.71   -1.62   -1.53   -1.45   -1.38   -1.31   -1.25
   -1.19   -1.13   -1.08   -1.03   -0.99   -0.95   -0.91   -0.87   -0.84   -0.80
   -0.77   -0.74   -0.72   -0.69   -0.66   -0.64   -0.62   -0.60   -0.58   -0.56
   -0.54   -0.52   -0.51   -0.49   -0.48   -0.46   -0.45   -0.44   -0.42   -0.41
   -0.40   -0.39   -0.38   -0.37   -0.36   -0.35   -0.34   -0.33   -0.32   -0.32
   -0.31   -0.30   -0.29   -0.29   -0.28   -0.27   -0.27   -0.26   -0.26   -0.25
   -0.33   -0.34   -0.34   -0.35   -0.36   -0.37   -0.38   -0.39   -0.40   -0.41
   -0.42   -0.43   -0.44   -0.45   -0.46   -0.47   -0.49   -0.50   -0.52   -0.53
   -0.55   -0.56   -0.58   -0.60   -0.61   -0.63   -0.65   -0.67   -0.70   -0.72
   -0.74   -0.77   -0.80   -0.83   -0.86   -0.89   -0.92   -0.96   -0.99   -1.03
   -1.08   -1.12   -1.17   -1.22   -1.27   -1.33   -1.39   -1.46   -1.53   -1.60
   -1.68   -1.77   -1.86   -1.96   -2.07   -2.19   -2.31   -2.45   -2.60   -2.77
   -2.94   -3.14   -3.36   -3.59   -3.85   -4.14   -4.46   -4.81   -5.21   -5.65
   -6.15   -6.71   -7.34   -8.05   -8.87   -9.79  -10.86  -12.08  -13.48  -15.10
  -16.95  -19.03  -21.31  -23.66  -25.83  -27.41  -28.00  -27.41  -25.83  -23.66
  -21.31  -19.03  -16.95  -15.10  -13.48  -12.08  -10.86   -9.79   -8.87   -8.05
   -7.34   -6.71   -6.15   -5.65   -5.21   -4.81   -4.46   -4.14   -3.85   -3.59
   -3.36   -3.14   -2.94   -2.77   -2.60   -2.45   -2.31   -2.19   -2.07   -1.96
   -1.86   -1.77   -1.68   -1.60   -1.53   -1.46   -1.39   -1.33   -1.27   -1.22
   -1.17   -1.12   -1.08   -1.03   -0.99   -0.96   -0.92   -0.89   -0.86   -0.83
   -0.80   -0.77   -0.74   -0.72   -0.70   -0.67   -0.65   -0.63   -0.61   -0.60
   -0.58   -0.56   -0.55   -0.53   -0.52   -0.50   -0.49   -0.47   -0.46   -0.45
   -0.44   -0.43   -0.42   -0.41   -0.40   -0.39   -0.38   -0.37   -0.36   -0.35
   -0.34   -0.34   -0.33   -0.32   -0.31   -0.40   -0.41   -0.42   -0.42   -0.43
   -0.44   -0.46   -0.47   -0.48   -0.49   -0.50   -0.51   -0.53   -0.54   -0.56
   -0.57   -0.59   -0.60   -0.62   -0.64   -0.65   -0.67   -0.69   -0.71   -0.73
   -0.76   -0.78   -0.81   -0.83   -0.86   -0.89   -0.92   -0.95   -0.98   -1.02
   -1.05   -1.09   -1.13   -1.18   -1.22   -1.27   -1.32   -1.38   -1.43   -1.49
   -1.56   -1.63   -1.70   -1.78   -1.86   -1.95   -2.05   -2.15   -2.26   -2.38
   -2.51   -2.65   -2.80   -2.96   -3.13   -3.32   -3.53   -3.75   -4.00   -4.26
   -4.56   -4.88   -5.24   -5.63   -6.06   -6.54   -7.08   -7.67   -8.34   -9.08
   -9.92  -10.86  -11.92  -13.10  -14.42  -15.88  -17.45  -19.08  -20.66  -22.04
  -22.99  -23.33  -22.99  -22.04  -20.66  -19.08  -17.45  -15.88  -14.42  -13.10
  -11.92  -10.86   -9.92   -9.08   -8.34   -7.67   -7.08   -6.54   -6.06   -5.63
   -5.24   -4.88   -4.56   -4.26   -4.00   -3.75   -3.53   -3.32   -3.13   -2.96
   -2.80   -2.65   -2.51   -2.38   -2.26   -2.15   -2.05   -1.95   -1.86   -1.78
   -1.70   -1.63   -1.56   -1.49   -1.43   -1.38   -1.32   -1.27   -1.22   -1.18
   -1.13   -1.09   -1.05   -1.02   -0.98   -0.95   -0.92   -0.89   -0.86   -0.83
   -0.81   -0.78   -0.76   -0.73   -0.71   -0.69   -0.67   -0.65   -0.64   -0.62
   -0.60   -0.59   -0.57   -0.56   -0.54   -0.53   -0.51   -0.50   -0.49   -0.48
   -0.47   -0.46   -0.44   -0.43   -0.42   -0.42   -0.41   -0.40   -0.39   -0.38
   -0.46   -0.48   -0.49   -0.50   -0.51   -0.52   -0.53   -0.54   -0.56   -0.57
   -0.59   -0.60   -0.62   -0.63   -0.65   -0.66   -0.68   -0.70   -0.72   -0.74
   -0.76   -0.78   -0.80   -0.83   -0.85   -0.88   -0.90   -0.93   -0.96   -0.99
   -1.02   -1.06   -1.09   -1.13   -1.17   -1.21   -1.25   -1.30   -1.35   -1.40
   -1.45   -1.51   -1.57   -1.63   -1.70   -1.77   -1.84   -1.92   -2.01   -2.10
   -2.19   -2.29   -2.40   -2.52   -2.65   -2.78   -2.92   -3.08   -3.25   -3.43
   -3.62   -3.83   -4.06   -4.30   -4.57   -4.86   -5.17   -5.52   -5.90   -6.31
   -6.77   -7.27   -7.82   -8.42   -9.10   -9.84  -10.66  -11.56  -12.55  -13.62
  -14.77  -15.96  -17.15  -18.25  -19.17  -19.78  -20.00  -19.78  -19.17  -18.25
  -17.15  -15.96  -14.77  -13.62  -12.55  -11.56  -10.66   -9.84   -9.10   -8.42
   -7.82   -7.27   -6.77   -6.31   -5.90   -5.52   -5.17   -4.86   -4.57   -4.30
   -4.06   -3.83   -3.62   -3.43   -3.25   -3.08   -2.92   -2.78   -2.65   -2.52
   -2.40   -2.29   -2.19   -2.10   -2.01   -1.92   -1.84   -1.77   -1.70   -1.63
   -1.57   -1.51   -1.45   -1.40   -1.35   -1.30   -1.25   -1.21   -1.17   -1.13
   -1.09   -1.06   -1.02   -0.99   -0.96   -0.93   -0.90   -0.88   -0.85   -0.83
   -0.80   -0.78   -0.76   -0.74   -0.72   -0.70   -0.68   -0.66   -0.65   -0.63
   -0.62   -0.60   -0.59   -0.57   -0.56   -0.54   -0.53   -0.52   -0.51   -0.50
   -0.49   -0.48   -0.46   -0.45   -0.45   -0.53   -0.54   -0.56   -0.57   -0.58
   -0.59   -0.61   -0.62   -0.64   -0.65   -0.67   -0.68   -0.70   -0.72   -0.74
   -0.76   -0.78   -0.80   -0.82   -0.84   -0.86   -0.89   -0.91   -0.94   -0.96
   -0.99   -1.02   -1.05   -1.09   -1.12   -1.15   -1.19   -1.23   -1.27   -1.31
   -1.36   -1.40   -1.45   -1.50   -1.56   -1.62   -1.68   -1.74   -1.81   -1.88
   -1.95   -2.03   -2.12   -2.20   -2.30   -2.40   -2.51   -2.62   -2.74   -2.87
   -3.01   -3.15   -3.31   -3.48   -3.66   -3.85   -4.06   -4.28   -4.52   -4.78
   -5.06   -5.37   -5.70   -6.05   -6.44   -6.87   -7.33   -7.83   -8.38   -8.98
   -9.63  -10.34  -11.11  -11.94  -12.81  -13.71  -14.63  -15.51  -16.30  -16.94
  -17.35  -17.50  -17.35  -16.94  -16.30  -15.51  -14.63  -13.71  -12.81  -11.94
  -11.11  -10.34   -9.63   -8.98   -8.38   -7.83   -7.33   -6.87   -6.44   -6.05
   -5.70   -5.37   -5.06   -4.78   -4.52   -4.28   -4.06   -3.85   -3.66   -3.48
   -3.31   -3.15   -3.01   -2.87   -2.74   -2.62   -2.51   -2.40   -2.30   -2.20
   -2.12   -2.03   -1.95   -1.88   -1.81   -1.74   -1.68   -1.62   -1.56   -1.50
   -1.45   -1.40   -1.36   -1.31   -1.27   -1.23   -1.19   -1.15   -1.12   -1.09
   -1.05   -1.02   -0.99   -0.96   -0.94   -0.91   -0.89   -0.86   -0.84   -0.82
   -0.80   -0.78   -0.76   -0.74   -0.72   -0.70   -0.68   -0.67   -0.65   -0.64
   -0.62   -0.61   -0.59   -0.58   -0.57   -0.56   -0.54   -0.53   -0.52   -0.51
   -0.60   -0.61   -0.62   -0.64   -0.65   -0.67   -0.68   -0.70   -0.71   -0.73
   -0.75   -0.77   -0.78   -0.80   -0.82   -0.84   -0.87   -0.89   -0.91   -0.94
   -0.96   -0.99   -1.01   -1.04   -1.07   -1.10   -1.13   -1.17   -1.20   -1.24
   -1.28   -1.32   -1.36   -1.40   -1.44   -1.49   -1.54   -1.59   -1.65   -1.71
   -1.77   -1.83   -1.89   -1.96   -2.04   -2.12   -2.20   -2.28   -2.38   -2.47
   -2.58   -2.68   -2.80   -2.92   -3.05   -3.19   -3.33   -3.49   -3.66   -3.83
   -4.02   -4.23   -4.44   -4.68   -4.92   -5.19   -5.48   -5.79   -6.13   -6.49
   -6.88   -7.31   -7.76   -8.25   -8.79   -9.36   -9.97  -10.62  -11.31  -12.02
  -12.74  -13.45  -14.11  -14.70  -15.16  -15.45  -15.56  -15.45  -15.16  -14.70
  -14.11  -13.45  -12.74  -12.02  -11.31  -10.62   -9.97   -9.36   -8.79   -8.25
   -7.76   -7.31   -6.88   -6.49   -6.13   -5.79   -5.48   -5.19   -4.92   -4.68
   -4.44   -4.23   -4.02   -3.83   -3.66   -3.49   -3.33   -3.19   -3.05   -2.92
   -2.80   -2.68   -2.58   -2.47   -2.38   -2.28   -2.20   -2.12   -2.04   -1.96
   -1.89   -1.83   -1.77   -1.71   -1.65   -1.59   -1.54   -1.49   -1.44   -1.40
   -1.36   -1.32   -1.28   -1.24   -1.20   -1.17   -1.13   -1.10   -1.07   -1.04
   -1.01   -0.99   -0.96   -0.94   -0.91   -0.89   -0.87   -0.84   -0.82   -0.80
   -0.78   -0.77   -0.75   -0.73   -0.71   -0.70   -0.68   -0.67   -0.65   -0.64
   -0.62   -0.61   -0.60   -0.59   -0.57   -0.66   -0.68   -0.69   -0.71   -0.72
   -0.74   -0.76   -0.77   -0.79   -0.81   -0.83   -0.85   -0.87   -0.89   -0.91
   -0.93   -0.95   -0.98   -1.00   -1.03   -1.05   -1.08   -1.11   -1.14   -1.17
   -1.20   -1.24   -1.27   -1.31   -1.35   -1.39   -1.43   -1.47   -1.52   -1.57
   -1.61   -1.67   -1.72   -1.78   -1.84   -1.90   -1.96   -2.03   -2.10   -2.18
   -2.26   -2.34   -2.43   -2.52   -2.62   -2.72   -2.83   -2.95   -3.07   -3.19
   -3.33   -3.48   -3.63   -3.79   -3.96   -4.15   -4.34   -4.55   -4.77   -5.01
   -5.27   -5.54   -5.83   -6.14   -6.48   -6.84   -7.22   -7.63   -8.07   -8.55
   -9.04   -9.57  -10.12  -10.70  -11.28  -11.86  -12.41  -12.93  -13.37  -13.71
  -13.93  -14.00  -13.93  -13.71  -13.37  -12.93  -12.41  -11.86  -11.28  -10.70
  -10.12   -9.57   -9.04   -8.55   -8.07   -7.63   -7.22   -6.84   -6.48   -6.14
   -5.83   -5.54   -5.27   -5.01   -4.77   -4.55   -4.34   -4.15   -3.96   -3.79
   -3.63   -3.48   -3.33   -3.19   -3.07   -2.95   -2.83   -2.72   -2.62   -2.52
   -2.43   -2.34   -2.26   -2.18   -2.10   -2.03   -1.96   -1.90   -1.84   -1.78
   -1.72   -1.67   -1.61   -1.57   -1.52   -1.47   -1.43   -1.39   -1.35   -1.31
   -1.27   -1.24   -1.20   -1.17   -1.14   -1.11   -1.08   -1.05   -1.03   -1.00
   -0.98   -0.95   -0.93   -0.91   -0.89   -0.87   -0.85   -0.83   -0.81   -0.79
   -0.77   -0.76   -0.74   -0.72   -0.71   -0.69   -0.68   -0.66   -0.65   -0.64
   -0.73   -0.74   -0.76   -0.77   -0.79   -0.81   -0.83   -0.84   -0.86   -0.88
   -0.90   -0.92   -0.94   -0.97   -0.99   -1.01   -1.04   -1.06   -1.09   -1.12
   -1.14   -1.17   -1.20   -1.23   -1.27   -1.30   -1.34   -1.37   -1.41   -1.45
   -1.49   -1.53   -1.58   -1.63   -1.67   -1.73   -1.78   -1.83   -1.89   -1.95
   -2.02   -2.08   -2.15   -2.22   -2.30   -2.38   -2.46   -2.55   -2.64   -2.74
   -2.84   -2.95   -3.06   -3.18   -3.31   -3.44   -3.58   -3.73   -3.89   -4.06
   -4.23   -4.42   -4.62   -4.83   -5.06   -5.30   -5.55   -5.82   -6.11   -6.42
   -6.75   -7.10   -7.47   -7.86   -8.28   -8.71   -9.17   -9.64  -10.12  -10.59
  -11.06  -11.51  -11.91  -12.25  -12.51  -12.67  -12.73  -12.67  -12.51  -12.25
  -11.91  -11.51  -11.06  -10.59  -10.12   -9.64   -9.17   -8.71   -8.28   -7.86
   -7.47   -7.10   -6.75   -6.42   -6.11   -5.82   -5.55   -5.30   -5.06   -4.83
   -4.62   -4.42   -4.23   -4.06   -3.89   -3.73   -3.58   -3.44   -3.31   -3.18
   -3.06   -2.95   -2.84   -2.74   -2.64   -2.55   -2.46   -2.38   -2.30   -2.22
   -2.15   -2.08   -2.02   -1.95   -1.89   -1.83   -1.78   -1.73   -1.67   -1.63
   -1.58   -1.53   -1.49   -1.45   -1.41   -1.37   -1.34   -1.30   -1.27   -1.23
   -1.20   -1.17   -1.14   -1.12   -1.09   -1.06   -1.04   -1.01   -0.99   -0.97
   -0.94   -0.92   -0.90   -0.88   -0.86   -0.84   -0.83   -0.81   -0.79   -0.77
   -0.76   -0.74   -0.73   -0.71   -0.70   -0.79   -0.81   -0.82   -0.84   -0.86
   -0.87   -0.89   -0.91   -0.93   -0.95   -0.97   -1.00   -1.02   -1.04   -1.06
   -1.09   -1.11   -1.14   -1.17   -1.20   -1.23   -1.26   -1.29   -1.32   -1.35
   -1.39   -1.43   -1.46   -1.50   -1.54   -1.59   -1.63   -1.68   -1.72   -1.77
   -1.82   -1.88   -1.93   -1.99   -2.05   -2.12   -2.18   -2.25   -2.33   -2.40
   -2.48   -2.56   -2.65   -2.74   -2.84   -2.94   -3.05   -3.16   -3.27   -3.40
   -3.53   -3.66   -3.81   -3.96   -4.12   -4.29   -4.47   -4.65   -4.85   -5.07
   -5.29   -5.53   -5.78   -6.05   -6.33   -6.63   -6.95   -7.28   -7.63   -8.00
   -8.38   -8.77   -9.17   -9.57   -9.97  -10.35  -10.71  -11.03  -11.30  -11.50
  -11.62  -11.67  -11.62  -11.50  -11.30  -11.03  -10.71  -10.35   -9.97   -9.57
   -9.17   -8.77   -8.38   -8.00   -7.63   -7.28   -6.95   -6.63   -6.33   -6.05
   -5.78   -5.53   -5.29   -5.07   -4.85   -4.65   -4.47   -4.29   -4.12   -3.96
   -3.81   -3.66   -3.53   -3.40   -3.27   -3.16   -3.05   -2.94   -2.84   -2.74
   -2.65   -2.56   -2.48   -2.40   -2.33   -2.25   -2.18   -2.12   -2.05   -1.99
   -1.93   -1.88   -1.82   -1.77   -1.72   -1.68   -1.63   -1.59   -1.54   -1.50
   -1.46   -1.43   -1.39   -1.35   -1.32   -1.29   -1.26   -1.23   -1.20   -1.17
   -1.14   -1.11   -1.09   -1.06   -1.04   -1.02   -1.00   -0.97   -0.95   -0.93
   -0.91   -0.89   -0.87   -0.86   -0.84   -0.82   -0.81   -0.79   -0.77   -0.76
   -0.85   -0.87   -0.88   -0.90   -0.92   -0.94   -0.96   -0.98   -1.00   -1.02
   -1.04   -1.06   -1.09   -1.11   -1.14   -1.16   -1.19   -1.22   -1.24   -1.27
   -1.30   -1.33   -1.37   -1.40   -1.43   -1.47   -1.51   -1.55   -1.59   -1.63
   -1.67   -1.72   -1.76   -1.81   -1.86   -1.91   -1.97   -2.02   -2.08   -2.14
   -2.21   -2.27   -2.34   -2.41   -2.49   -2.57   -2.65   -2.73   -2.82   -2.92
   -3.02   -3.12   -3.23   -3.34   -3.46   -3.59   -3.72   -3.86   -4.00   -4.15
   -4.31   -4.48   -4.66   -4.85   -5.05   -5.26   -5.48   -5.72   -5.96   -6.22
   -6.49   -6.78   -7.08   -7.39   -7.71   -8.05   -8.38   -8.73   -9.07   -9.40
   -9.71  -10.01  -10.26  -10.48  -10.64  -10.74  -10.77  -10.74  -10.64  -10.48
  -10.26  -10.01   -9.71   -9.40   -9.07   -8.73   -8.38   -8.05   -7.71   -7.39
   -7.08   -6.78   -6.49   -6.22   -5.96   -5.72   -5.48   -5.26   -5.05   -4.85
   -4.66   -4.48   -4.31   -4.15   -4.00   -3.86   -3.72   -3.59   -3.46   -3.34
   -3.23   -3.12   -3.02   -2.92   -2.82   -2.73   -2.65   -2.57   -2.49   -2.41
   -2.34   -2.27   -2.21   -2.14   -2.08   -2.02   -1.97   -1.91   -1.86   -1.81
   -1.76   -1.72   -1.67   -1.63   -1.59   -1.55   -1.51   -1.47   -1.43   -1.40
   -1.37   -1.33   -1.30   -1.27   -1.24   -1.22   -1.19   -1.16   -1.14   -1.11
   -1.09   -1.06   -1.04   -1.02   -1.00   -0.98   -0.96   -0.94   -0.92   -0.90
   -0.88   -0.87   -0.85   -0.83   -0.82   -0.91   -0.93   -0.94   -0.96   -0.98
   -1.00   -1.02   -1.04   -1.06   -1.08   -1.11   -1.13   -1.15   -1.18   -1.20
   -1.23   -1.26   -1.28   -1.31   -1.34   -1.37   -1.41   -1.44   -1.47   -1.51
   -1.54   -1.58   -1.62   -1.66   -1.70   -1.75   -1.79   -1.84   -1.89   -1.94
   -1.99   -2.04   -2.10   -2.16   -2.22   -2.28   -2.35   -2.41   -2.49   -2.56
   -2.64   -2.72   -2.80   -2.89   -2.98   -3.08   -3.18   -3.28   -3.39   -3.51
   -3.63   -3.75   -3.88   -4.02   -4.17   -4.32   -4.48   -4.65   -4.83   -5.02
   -5.21   -5.42   -5.63   -5.86   -6.10   -6.35   -6.60   -6.87   -7.15   -7.43
   -7.72   -8.02   -8.31   -8.60   -8.88   -9.14   -9.38   -9.59   -9.76   -9.89
   -9.97  -10.00   -9.97   -9.89   -9.76   -9.59   -9.38   -9.14   -8.88   -8.60
   -8.31   -8.02   -7.72   -7.43   -7.15   -6.87   -6.60   -6.35   -6.10   -5.86
   -5.63   -5.42   -5.21   -5.02   -4.83   -4.65   -4.48   -4.32   -4.17   -4.02
   -3.88   -3.75   -3.63   -3.51   -3.39   -3.28   -3.18   -3.08   -2.98   -2.89
   -2.80   -2.72   -2.64   -2.56   -2.49   -2.41   -2.35   -2.28   -2.22   -2.16
   -2.10   -2.04   -1.99   -1.94   -1.89   -1.84   -1.79   -1.75   -1.70   -1.66
   -1.62   -1.58   -1.54   -1.51   -1.47   -1.44   -1.41   -1.37   -1.34   -1.31
   -1.28   -1.26   -1.23   -1.20   -1.18   -1.15   -1.13   -1.11   -1.08   -1.06
   -1.04   -1.02   -1.00   -0.98   -0.96   -0.94   -0.93   -0.91   -0.89   -0.87
   -0.96   -0.98   -1.00   -1.02   -1.04   -1.06   -1.08   -1.10   -1.12   -1.14
   -1.17   -1.19   -1.21   -1.24   -1.27   -1.29   -1.32   -1.35   -1.38   -1.41
   -1.44   -1.47   -1.50   -1.54   -1.57   -1.61   -1.65   -1.69   -1.73   -1.77
   -1.81   -1.86   -1.91   -1.95   -2.00   -2.05   -2.11   -2.16   -2.22   -2.28
   -2.34   -2.41   -2.48   -2.55   -2.62   -2.69   -2.77   -2.85   -2.94   -3.03
   -3.12   -3.22   -3.32   -3.43   -3.54   -3.65   -3.77   -3.90   -4.03   -4.17
   -4.31   -4.47   -4.62   -4.79   -4.97   -5.15   -5.34   -5.54   -5.75   -5.96
   -6.19   -6.42   -6.66   -6.91   -7.16   -7.41   -7.67   -7.92   -8.17   -8.41
   -8.63   -8.83   -9.00   -9.14   -9.25   -9.31   -9.33   -9.31   -9.25   -9.14
   -9.00   -8.83   -8.63   -8.41   -8.17   -7.92   -7.67   -7.41   -7.16   -6.91
   -6.66   -6.42   -6.19   -5.96   -5.75   -5.54   -5.34   -5.15   -4.97   -4.79
   -4.62   -4.47   -4.31   -4.17   -4.03   -3.90   -3.77   -3.65   -3.54   -3.43
   -3.32   -3.22   -3.12   -3.03   -2.94   -2.85   -2.77   -2.69   -2.62   -2.55
   -2.48   -2.41   -2.34   -2.28   -2.22   -2.16   -2.11   -2.05   -2.00   -1.95
   -1.91   -1.86   -1.81   -1.77   -1.73   -1.69   -1.65   -1.61   -1.57   -1.54
   -1.50   -1.47   -1.44   -1.41   -1.38   -1.35   -1.32   -1.29   -1.27   -1.24
   -1.21   -1.19   -1.17   -1.14   -1.12   -1.10   -1.08   -1.06   -1.04   -1.02
   -1.00   -0.98   -0.96   -0.95   -0.93   -1.01   -1.03   -1.05   -1.07   -1.09
   -1.11   -1.13   -1.15   -1.18   -1.20   -1.22   -1.25   -1.27   -1.30   -1.32
   -1.35   -1.38   -1.41   -1.44   -1.47   -1.50   -1.53   -1.56   -1.60   -1.63
   -1.67   -1.71   -1.75   -1.79   -1.83   -1.87   -1.92   -1.96   -2.01   -2.06
   -2.11   -2.16   -2.22   -2.28   -2.33   -2.40   -2.46   -2.53   -2.59   -2.66
   -2.74   -2.81   -2.89   -2.98   -3.06   -3.15   -3.25   -3.34   -3.45   -3.55
   -3.66   -3.78   -3.90   -4.02   -4.15   -4.29   -4.44   -4.58   -4.74   -4.90
   -5.07   -5.25   -5.43   -5.63   -5.82   -6.03   -6.24   -6.45   -6.67   -6.90
   -7.12   -7.34   -7.56   -7.77   -7.98   -8.16   -8.33   -8.47   -8.59   -8.68
   -8.73   -8.75   -8.73   -8.68   -8.59   -8.47   -8.33   -8.16   -7.98   -7.77
   -7.56   -7.34   -7.12   -6.90   -6.67   -6.45   -6.24   -6.03   -5.82   -5.63
   -5.43   -5.25   -5.07   -4.90   -4.74   -4.58   -4.44   -4.29   -4.15   -4.02
   -3.90   -3.78   -3.66   -3.55   -3.45   -3.34   -3.25   -3.15   -3.06   -2.98
   -2.89   -2.81   -2.74   -2.66   -2.59   -2.53   -2.46   -2.40   -2.33   -2.28
   -2.22   -2.16   -2.11   -2.06   -2.01   -1.96   -1.92   -1.87   -1.83   -1.79
   -1.75   -1.71   -1.67   -1.63   -1.60   -1.56   -1.53   -1.50   -1.47   -1.44
   -1.41   -1.38   -1.35   -1.32   -1.30   -1.27   -1.25   -1.22   -1.20   -1.18
   -1.15   -1.13   -1.11   -1.09   -1.07   -1.05   -1.03   -1.01   -1.00   -0.98
   -1.06   -1.08   -1.10   -1.12   -1.14   -1.16   -1.18   -1.21   -1.23   -1.25
   -1.28   -1.30   -1.32   -1.35   -1.38   -1.40   -1.43   -1.46   -1.49   -1.52
   -1.55   -1.58   -1.62   -1.65   -1.69   -1.72   -1.76   -1.80   -1.84   -1.88
   -1.92   -1.97   -2.01   -2.06   -2.11   -2.16   -2.21   -2.27   -2.32   -2.38
   -2.44   -2.50   -2.56   -2.63   -2.70   -2.77   -2.85   -2.92   -3.00   -3.09
   -3.17   -3.26   -3.36   -3.45   -3.56   -3.66   -3.77   -3.89   -4.01   -4.13
   -4.26   -4.39   -4.54   -4.68   -4.83   -4.99   -5.15   -5.32   -5.50   -5.68
   -5.87   -6.06   -6.25   -6.45   -6.64   -6.84   -7.04   -7.23   -7.41   -7.58
   -7.74   -7.88   -8.01   -8.10   -8.18   -8.22   -8.24   -8.22   -8.18   -8.10
   -8.01   -7.88   -7.74   -7.58   -7.41   -7.23   -7.04   -6.84   -6.64   -6.45
   -6.25   -6.06   -5.87   -5.68   -5.50   -5.32   -5.15   -4.99   -4.83   -4.68
   -4.54   -4.39   -4.26   -4.13   -4.01   -3.89   -3.77   -3.66   -3.56   -3.45
   -3.36   -3.26   -3.17   -3.09   -3.00   -2.92   -2.85   -2.77   -2.70   -2.63
   -2.56   -2.50   -2.44   -2.38   -2.32   -2.27   -2.21   -2.16   -2.11   -2.06
   -2.01   -1.97   -1.92   -1.88   -1.84   -1.80   -1.76   -1.72   -1.69   -1.65
   -1.62   -1.58   -1.55   -1.52   -1.49   -1.46   -1.43   -1.40   -1.38   -1.35
   -1.32   -1.30   -1.28   -1.25   -1.23   -1.21   -1.18   -1.16   -1.14   -1.12
   -1.10   -1.08   -1.06   -1.05   -1.03   -1.11   -1.13   -1.15   -1.17   -1.19
   -1.21   -1.23   -1.25   -1.28   -1.30   -1.32   -1.35   -1.37   -1.40   -1.42
   -1.45   -1.48   -1.51   -1.54   -1.57   -1.60   -1.63   -1.67   -1.70   -1.73
   -1.77   -1.81   -1.85   -1.89   -1.93   -1.97   -2.01   -2.06   -2.10   -2.15
   -2.20   -2.25   -2.30   -2.36   -2.42   -2.47   -2.53   -2.60   -2.66   -2.73
   -2.80   -2.87   -2.94   -3.02   -3.10   -3.19   -3.27   -3.36   -3.45   -3.55
   -3.65   -3.76   -3.87   -3.98   -4.10   -4.22   -4.35   -4.48   -4.61   -4.76
   -4.90   -5.05   -5.21   -5.37   -5.54   -5.70   -5.88   -6.05   -6.23   -6.40
   -6.58   -6.75   -6.91   -7.07   -7.22   -7.36   -7.48   -7.58   -7.67   -7.73
   -7.77   -7.78   -7.77   -7.73   -7.67   -7.58   -7.48   -7.36   -7.22   -7.07
   -6.91   -6.75   -6.58   -6.40   -6.23   -6.05   -5.88   -5.70   -5.54   -5.37
   -5.21   -5.05   -4.90   -4.76   -4.61   -4.48   -4.35   -4.22   -4.10   -3.98
   -3.87   -3.76   -3.65   -3.55   -3.45   -3.36   -3.27   -3.19   -3.10   -3.02
   -2.94   -2.87   -2.80   -2.73   -2.66   -2.60   -2.53   -2.47   -2.42   -2.36
   -2.30   -2.25   -2.20   -2.15   -2.10   -2.06   -2.01   -1.97   -1.93   -1.89
   -1.85   -1.81   -1.77   -1.73   -1.70   -1.67   -1.63   -1.60   -1.57   -1.54
   -1.51   -1.48   -1.45   -1.42   -1.40   -1.37   -1.35   -1.32   -1.30   -1.28
   -1.25   -1.23   -1.21   -1.19   -1.17   -1.15   -1.13   -1.11   -1.09   -1.07
   -1.15   -1.17   -1.19   -1.21   -1.23   -1.25   -1.28   -1.30   -1.32   -1.34
   -1.37   -1.39   -1.42   -1.44   -1.47   -1.50   -1.52   -1.55   -1.58   -1.61
   -1.64   -1.67   -1.71   -1.74   -1.78   -1.81   -1.85   -1.89   -1.93   -1.97
   -2.01   -2.05   -2.09   -2.14   -2.19   -2.23   -2.28   -2.34   -2.39   -2.44
   -2.50   -2.56   -2.62   -2.68   -2.75   -2.81   -2.88   -2.96   -3.03   -3.11
   -3.19   -3.27   -3.36   -3.45   -3.54   -3.64   -3.74   -3.84   -3.95   -4.06
   -4.17   -4.29   -4.42   -4.54   -4.67   -4.81   -4.95   -5.09   -5.24   -5.39
   -5.55   -5.70   -5.86   -6.02   -6.17   -6.33   -6.48   -6.63   -6.76   -6.89
   -7.01   -7.11   -7.20   -7.27   -7.33   -7.36   -7.37   -7.36   -7.33   -7.27
   -7.20   -7.11   -7.01   -6.89   -6.76   -6.63   -6.48   -6.33   -6.17   -6.02
   -5.86   -5.70   -5.55   -5.39   -5.24   -5.09   -4.95   -4.81   -4.67   -4.54
   -4.42   -4.29   -4.17   -4.06   -3.95   -3.84   -3.74   -3.64   -3.54   -3.45
   -3.36   -3.27   -3.19   -3.11   -3.03   -2.96   -2.88   -2.81   -2.75   -2.68
   -2.62   -2.56   -2.50   -2.44   -2.39   -2.34   -2.28   -2.23   -2.19   -2.14
   -2.09   -2.05   -2.01   -1.97   -1.93   -1.89   -1.85   -1.81   -1.78   -1.74
   -1.71   -1.67   -1.64   -1.61   -1.58   -1.55   -1.52   -1.50   -1.47   -1.44
   -1.42   -1.39   -1.37   -1.34   -1.32   -1.30   -1.28   -1.25   -1.23   -1.21
   -1.19   -1.17   -1.15   -1.13   -1.12   -1.19   -1.21   -1.23   -1.25   -1.27
   -1.29   -1.32   -1.34   -1.36   -1.38   -1.41   -1.43   -1.46   -1.48   -1.51
   -1.54   -1.56   -1.59   -1.62   -1.65   -1.68   -1.71   -1.74   -1.78   -1.81
   -1.85   -1.88   -1.92   -1.96   -2.00   -2.04   -2.08   -2.12   -2.17   -2.21
   -2.26   -2.31   -2.36   -2.41   -2.47   -2.52   -2.58   -2.64   -2.70   -2.76
   -2.83   -2.89   -2.96   -3.03   -3.11   -3.19   -3.27   -3.35   -3.43   -3.52
   -3.61   -3.71   -3.81   -3.91   -4.01   -4.12   -4.23   -4.35   -4.47   -4.59
   -4.72   -4.85   -4.98   -5.11   -5.25   -5.39   -5.53   -5.67   -5.82   -5.96
   -6.09   -6.23   -6.36   -6.48   -6.59   -6.69   -6.78   -6.86   -6.92   -6.96
   -6.99   -7.00   -6.99   -6.96   -6.92   -6.86   -6.78   -6.69   -6.59   -6.48
   -6.36   -6.23   -6.09   -5.96   -5.82   -5.67   -5.53   -5.39   -5.25   -5.11
   -4.98   -4.85   -4.72   -4.59   -4.47   -4.35   -4.23   -4.12   -4.01   -3.91
   -3.81   -3.71   -3.61   -3.52   -3.43   -3.35   -3.27   -3.19   -3.11   -3.03
   -2.96   -2.89   -2.83   -2.76   -2.70   -2.64   -2.58   -2.52   -2.47   -2.41
   -2.36   -2.31   -2.26   -2.21   -2.17   -2.12   -2.08   -2.04   -2.00   -1.96
   -1.92   -1.88   -1.85   -1.81   -1.78   -1.74   -1.71   -1.68   -1.65   -1.62
   -1.59   -1.56   -1.54   -1.51   -1.48   -1.46   -1.43   -1.41   -1.38   -1.36
   -1.34   -1.32   -1.29   -1.27   -1.25   -1.23   -1.21   -1.19   -1.18   -1.16
   -3.68   -3.71   -3.74   -3.77   -3.80   -3.83   -3.86   -3.89   -3.92   -3.95
   -3.98   -4.01   -4.05   -4.08   -4.11   -4.15   -4.18   -4.21   -4.25   -4.28
   -4.32   -4.35   -4.39   -4.42   -4.46   -4.50   -4.53   -4.57   -4.61   -4.64
   -4.68   -4.72   -4.75   -4.79   -4.82   -4.86   -4.90   -4.93   -4.97   -5.00
   -5.03   -5.07   -5.10   -5.13   -5.16   -5.19   -5.21   -5.24   -5.26   -5.28
   -5.30   -5.32   -5.33   -5.34   -5.35   -5.35   -5.35   -5.34   -5.33   -5.31
   -5.28   -5.25   -5.21   -5.17   -5.11   -5.04   -4.96   -4.87   -4.77   -4.65
   -4.52   -4.37   -4.21   -4.03   -3.83   -3.61   -3.37   -3.10   -2.82   -2.52
   -2.20   -1.87   -1.51   -1.15   -0.77   -0.39    0.00    0.39    0.77    1.15
    1.51    1.87    2.20    2.52    2.82    3.10    3.37    3.61    3.83    4.03
    4.21    4.37    4.52    4.65    4.77    4.87    4.96    5.04    5.11    5.17
    5.21    5.25    5.28    5.31    5.33    5.34    5.35    5.35    5.35    5.34
    5.33    5.32    5.30    5.28    5.26    5.24    5.21    5.19    5.16    5.13
    5.10    5.07    5.03    5.00    4.97    4.93    4.90    4.86    4.82    4.79
    4.75    4.72    4.68    4.64    4.61    4.57    4.53    4.50    4.46    4.42
    4.39    4.35    4.32    4.28    4.25    4.21    4.18    4.15    4.11    4.08
    4.05    4.01    3.98    3.95    3.92    3.89    3.86    3.83    3.80    3.77
    3.74    3.71    3.68    3.65    3.63   -3.77   -3.80   -3.83   -3.86   -3.89
   -3.92   -3.95   -3.98   -4.02   -4.05   -4.08   -4.12   -4.15   -4.19   -4.22
   -4.26   -4.30   -4.33   -4.37   -4.41   -4.45   -4.48   -4.52   -4.56   -4.60
   -4.64   -4.68   -4.72   -4.76   -4.80   -4.84   -4.88   -4.92   -4.96   -5.00
   -5.04   -5.08   -5.12   -5.16   -5.20   -5.24   -5.28   -5.32   -5.35   -5.39
   -5.42   -5.46   -5.49   -5.52   -5.55   -5.57   -5.59   -5.61   -5.63   -5.64
   -5.65   -5.66   -5.66   -5.65   -5.64   -5.62   -5.60   -5.57   -5.52   -5.47
   -5.41   -5.34   -5.25   -5.15   -5.03   -4.90   -4.75   -4.58   -4.40   -4.19
   -3.95   -3.70   -3.42   -3.12   -2.79   -2.44   -2.07   -1.68   -1.28   -0.86
   -0.43    0.00    0.43    0.86    1.28    1.68    2.07    2.44    2.79    3.12
    3.42    3.70    3.95    4.19    4.40    4.58    4.75    4.90    5.03    5.15
    5.25    5.34    5.41    5.47    5.52    5.57    5.60    5.62    5.64    5.65
    5.66    5.66    5.65    5.64    5.63    5.61    5.59    5.57    5.55    5.52
    5.49    5.46    5.42    5.39    5.35    5.32    5.28    5.24    5.20    5.16
    5.12    5.08    5.04    5.00    4.96    4.92    4.88    4.84    4.80    4.76
    4.72    4.68    4.64    4.60    4.56    4.52    4.48    4.45    4.41    4.37
    4.33    4.30    4.26    4.22    4.19    4.15    4.12    4.08    4.05    4.02
    3.98    3.95    3.92    3.89    3.86    3.83    3.80    3.77    3.74    3.71
   -3.85   -3.88   -3.92   -3.95   -3.98   -4.01   -4.05   -4.08   -4.12   -4.15
   -4.19   -4.23   -4.26   -4.30   -4.34   -4.38   -4.42   -4.46   -4.50   -4.54
   -4.58   -4.62   -4.66   -4.70   -4.74   -4.79   -4.83   -4.87   -4.92   -4.96
   -5.01   -5.05   -5.10   -5.14   -5.19   -5.23   -5.28   -5.33   -5.37   -5.42
   -5.46   -5.50   -5.55   -5.59   -5.63   -5.67   -5.71   -5.75   -5.79   -5.82
   -5.86   -5.89   -5.92   -5.94   -5.96   -5.98   -5.99   -6.00   -6.01   -6.00
   -5.99   -5.98   -5.95   -5.92   -5.87   -5.82   -5.75   -5.67   -5.57   -5.46
   -5.33   -5.18   -5.01   -4.81   -4.59   -4.35   -4.08   -3.78   -3.45   -3.10
   -2.72   -2.31   -1.88   -1.43   -0.96   -0.48    0.00    0.48    0.96    1.43
    1.88    2.31    2.72    3.10    3.45    3.78    4.08    4.35    4.59    4.81
    5.01    5.18    5.33    5.46    5.57    5.67    5.75    5.82    5.87    5.92
    5.95    5.98    5.99    6.00    6.01    6.00    5.99    5.98    5.96    5.94
    5.92    5.89    5.86    5.82    5.79    5.75    5.71    5.67    5.63    5.59
    5.55    5.50    5.46    5.42    5.37    5.33    5.28    5.23    5.19    5.14
    5.10    5.05    5.01    4.96    4.92    4.87    4.83    4.79    4.74    4.70
    4.66    4.62    4.58    4.54    4.50    4.46    4.42    4.38    4.34    4.30
    4.26    4.23    4.19    4.15    4.12    4.08    4.05    4.01    3.98    3.95
    3.92    3.88    3.85    3.82    3.79   -3.94   -3.97   -4.01   -4.04   -4.08
   -4.11   -4.15   -4.18   -4.22   -4.26   -4.30   -4.34   -4.38   -4.42   -4.46
   -4.50   -4.54   -4.58   -4.62   -4.67   -4.71   -4.76   -4.80   -4.85   -4.89
   -4.94   -4.99   -5.04   -5.08   -5.13   -5.18   -5.23   -5.28   -5.33   -5.38
   -5.43   -5.48   -5.54   -5.59   -5.64   -5.69   -5.74   -5.79   -5.84   -5.89
   -5.94   -5.99   -6.03   -6.08   -6.12   -6.16   -6.20   -6.24   -6.27   -6.31
   -6.33   -6.36   -6.37   -6.39   -6.40   -6.40   -6.39   -6.37   -6.35   -6.31
   -6.27   -6.21   -6.13   -6.04   -5.93   -5.81   -5.66   -5.48   -5.29   -5.06
   -4.81   -4.52   -4.20   -3.85   -3.46   -3.04   -2.59   -2.11   -1.61   -1.08
   -0.55    0.00    0.55    1.08    1.61    2.11    2.59    3.04    3.46    3.85
    4.20    4.52    4.81    5.06    5.29    5.48    5.66    5.81    5.93    6.04
    6.13    6.21    6.27    6.31    6.35    6.37    6.39    6.40    6.40    6.39
    6.37    6.36    6.33    6.31    6.27    6.24    6.20    6.16    6.12    6.08
    6.03    5.99    5.94    5.89    5.84    5.79    5.74    5.69    5.64    5.59
    5.54    5.48    5.43    5.38    5.33    5.28    5.23    5.18    5.13    5.08
    5.04    4.99    4.94    4.89    4.85    4.80    4.76    4.71    4.67    4.62
    4.58    4.54    4.50    4.46    4.42    4.38    4.34    4.30    4.26    4.22
    4.18    4.15    4.11    4.08    4.04    4.01    3.97    3.94    3.91    3.87
   -4.03   -4.06   -4.10   -4.14   -4.17   -4.21   -4.25   -4.29   -4.33   -4.37
   -4.41   -4.45   -4.49   -4.53   -4.58   -4.62   -4.66   -4.71   -4.76   -4.80
   -4.85   -4.90   -4.95   -5.00   -5.05   -5.10   -5.15   -5.20   -5.25   -5.31
   -5.36   -5.42   -5.47   -5.53   -5.58   -5.64   -5.70   -5.75   -5.81   -5.87
   -5.93   -5.99   -6.04   -6.10   -6.16   -6.22   -6.27   -6.33   -6.38   -6.44
   -6.49   -6.54   -6.59   -6.63   -6.67   -6.71   -6.75   -6.78   -6.80   -6.82
   -6.83   -6.84   -6.84   -6.82   -6.80   -6.76   -6.71   -6.65   -6.57   -6.47
   -6.35   -6.20   -6.03   -5.83   -5.60   -5.33   -5.03   -4.69   -4.31   -3.89
   -3.43   -2.93   -2.39   -1.83   -1.23   -0.62    0.00    0.62    1.23    1.83
    2.39    2.93    3.43    3.89    4.31    4.69    5.03    5.33    5.60    5.83
    6.03    6.20    6.35    6.47    6.57    6.65    6.71    6.76    6.80    6.82
    6.84    6.84    6.83    6.82    6.80    6.78    6.75    6.71    6.67    6.63
    6.59    6.54    6.49    6.44    6.38    6.33    6.27    6.22    6.16    6.10
    6.04    5.99    5.93    5.87    5.81    5.75    5.70    5.64    5.58    5.53
    5.47    5.42    5.36    5.31    5.25    5.20    5.15    5.10    5.05    5.00
    4.95    4.90    4.85    4.80    4.76    4.71    4.66    4.62    4.58    4.53
    4.49    4.45    4.41    4.37    4.33    4.29    4.25    4.21    4.17    4.14
    4.10    4.06    4.03    3.99    3.96   -4.12   -4.16   -4.19   -4.23   -4.27
   -4.31   -4.35   -4.39   -4.43   -4.48   -4.52   -4.56   -4.61   -4.65   -4.70
   -4.75   -4.79   -4.84   -4.89   -4.94   -4.99   -5.04   -5.10   -5.15   -5.20
   -5.26   -5.31   -5.37   -5.43   -5.49   -5.55   -5.61   -5.67   -5.73   -5.79
   -5.86   -5.92   -5.98   -6.05   -6.11   -6.18   -6.25   -6.31   -6.38   -6.44
   -6.51   -6.58   -6.64   -6.71   -6.77   -6.83   -6.90   -6.96   -7.01   -7.07
   -7.12   -7.17   -7.21   -7.25   -7.29   -7.31   -7.33   -7.34   -7.35   -7.34
   -7.31   -7.28   -7.23   -7.16   -7.07   -6.96   -6.82   -6.65   -6.45   -6.22
   -5.94   -5.63   -5.27   -4.86   -4.40   -3.89   -3.34   -2.73   -2.09   -1.41
   -0.71    0.00    0.71    1.41    2.09    2.73    3.34    3.89    4.40    4.86
    5.27    5.63    5.94    6.22    6.45    6.65    6.82    6.96    7.07    7.16
    7.23    7.28    7.31    7.34    7.35    7.34    7.33    7.31    7.29    7.25
    7.21    7.17    7.12    7.07    7.01    6.96    6.90    6.83    6.77    6.71
    6.64    6.58    6.51    6.44    6.38    6.31    6.25    6.18    6.11    6.05
    5.98    5.92    5.86    5.79    5.73    5.67    5.61    5.55    5.49    5.43
    5.37    5.31    5.26    5.20    5.15    5.10    5.04    4.99    4.94    4.89
    4.84    4.79    4.75    4.70    4.65    4.61    4.56    4.52    4.48    4.43
    4.39    4.35    4.31    4.27    4.23    4.19    4.16    4.12    4.08    4.05
   -4.21   -4.25   -4.29   -4.33   -4.37   -4.41   -4.46   -4.50   -4.54   -4.59
   -4.63   -4.68   -4.73   -4.77   -4.82   -4.87   -4.92   -4.98   -5.03   -5.08
   -5.14   -5.19   -5.25   -5.31   -5.37   -5.42   -5.49   -5.55   -5.61   -5.67
   -5.74   -5.80   -5.87   -5.94   -6.01   -6.08   -6.15   -6.22   -6.29   -6.37
   -6.44   -6.52   -6.59   -6.67   -6.74   -6.82   -6.90   -6.97   -7.05   -7.13
   -7.20   -7.28   -7.35   -7.42   -7.49   -7.56   -7.62   -7.68   -7.74   -7.79
   -7.83   -7.87   -7.90   -7.92   -7.93   -7.93   -7.91   -7.88   -7.82   -7.75
   -7.65   -7.52   -7.36   -7.17   -6.94   -6.66   -6.33   -5.95   -5.51   -5.01
   -4.45   -3.83   -3.15   -2.41   -1.64   -0.83    0.00    0.83    1.64    2.41
    3.15    3.83    4.45    5.01    5.51    5.95    6.33    6.66    6.94    7.17
    7.36    7.52    7.65    7.75    7.82    7.88    7.91    7.93    7.93    7.92
    7.90    7.87    7.83    7.79    7.74    7.68    7.62    7.56    7.49    7.42
    7.35    7.28    7.20    7.13    7.05    6.97    6.90    6.82    6.74    6.67
    6.59    6.52    6.44    6.37    6.29    6.22    6.15    6.08    6.01    5.94
    5.87    5.80    5.74    5.67    5.61    5.55    5.49    5.42    5.37    5.31
    5.25    5.19    5.14    5.08    5.03    4.98    4.92    4.87    4.82    4.77
    4.73    4.68    4.63    4.59    4.54    4.50    4.46    4.41    4.37    4.33
    4.29    4.25    4.21    4.17    4.14   -4.30   -4.35   -4.39   -4.43   -4.47
   -4.52   -4.56   -4.61   -4.65   -4.70   -4.75   -4.80   -4.85   -4.90   -4.95
   -5.00   -5.06   -5.11   -5.17   -5.23   -5.28   -5.34   -5.41   -5.47   -5.53
   -5.59   -5.66   -5.73   -5.79   -5.86   -5.93   -6.01   -6.08   -6.15   -6.23
   -6.31   -6.39   -6.47   -6.55   -6.63   -6.71   -6.80   -6.88   -6.97   -7.06
   -7.14   -7.23   -7.32   -7.41   -7.50   -7.59   -7.68   -7.77   -7.86   -7.95
   -8.03   -8.11   -8.19   -8.27   -8.34   -8.40   -8.46   -8.51   -8.56   -8.59
   -8.61   -8.61   -8.60   -8.57   -8.52   -8.44   -8.33   -8.19   -8.00   -7.77
   -7.50   -7.16   -6.76   -6.30   -5.76   -5.14   -4.44   -3.66   -2.82   -1.91
   -0.97    0.00    0.97    1.91    2.82    3.66    4.44    5.14    5.76    6.30
    6.76    7.16    7.50    7.77    8.00    8.19    8.33    8.44    8.52    8.57
    8.60    8.61    8.61    8.59    8.56    8.51    8.46    8.40    8.34    8.27
    8.19    8.11    8.03    7.95    7.86    7.77    7.68    7.59    7.50    7.41
    7.32    7.23    7.14    7.06    6.97    6.88    6.80    6.71    6.63    6.55
    6.47    6.39    6.31    6.23    6.15    6.08    6.01    5.93    5.86    5.79
    5.73    5.66    5.59    5.53    5.47    5.41    5.34    5.28    5.23    5.17
    5.11    5.06    5.00    4.95    4.90    4.85    4.80    4.75    4.70    4.65
    4.61    4.56    4.52    4.47    4.43    4.39    4.35    4.30    4.26    4.23
   -4.40   -4.44   -4.49   -4.53   -4.57   -4.62   -4.67   -4.72   -4.76   -4.81
   -4.87   -4.92   -4.97   -5.02   -5.08   -5.14   -5.19   -5.25   -5.31   -5.37
   -5.43   -5.50   -5.56   -5.63   -5.70   -5.77   -5.84   -5.91   -5.98   -6.06
   -6.14   -6.21   -6.29   -6.38   -6.46   -6.54   -6.63   -6.72   -6.81   -6.90
   -6.99   -7.09   -7.18   -7.28   -7.38   -7.48   -7.59   -7.69   -7.79   -7.90
   -8.00   -8.11   -8.22   -8.32   -8.43   -8.54   -8.64   -8.74   -8.84   -8.93
   -9.02   -9.11   -9.19   -9.26   -9.32   -9.37   -9.40   -9.42   -9.42   -9.39
   -9.34   -9.26   -9.14   -8.97   -8.76   -8.49   -8.16   -7.75   -7.25   -6.67
   -5.99   -5.20   -4.31   -3.33   -2.27   -1.15    0.00    1.15    2.27    3.33
    4.31    5.20    5.99    6.67    7.25    7.75    8.16    8.49    8.76    8.97
    9.14    9.26    9.34    9.39    9.42    9.42    9.40    9.37    9.32    9.26
    9.19    9.11    9.02    8.93    8.84    8.74    8.64    8.54    8.43    8.32
    8.22    8.11    8.00    7.90    7.79    7.69    7.59    7.48    7.38    7.28
    7.18    7.09    6.99    6.90    6.81    6.72    6.63    6.54    6.46    6.38
    6.29    6.21    6.14    6.06    5.98    5.91    5.84    5.77    5.70    5.63
    5.56    5.50    5.43    5.37    5.31    5.25    5.19    5.14    5.08    5.02
    4.97    4.92    4.87    4.81    4.76    4.72    4.67    4.62    4.57    4.53
    4.49    4.44    4.40    4.36    4.32   -4.49   -4.54   -4.58   -4.63   -4.68
   -4.73   -4.78   -4.83   -4.88   -4.93   -4.98   -5.04   -5.09   -5.15   -5.21
   -5.27   -5.33   -5.39   -5.46   -5.52   -5.59   -5.65   -5.72   -5.80   -5.87
   -5.94   -6.02   -6.10   -6.18   -6.26   -6.34   -6.43   -6.51   -6.60   -6.69
   -6.79   -6.88   -6.98   -7.08   -7.18   -7.28   -7.39   -7.50   -7.61   -7.72
   -7.84   -7.95   -8.07   -8.19   -8.31   -8.44   -8.56   -8.69   -8.82   -8.95
   -9.08   -9.20   -9.33   -9.46   -9.58   -9.70   -9.82   -9.93  -10.03  -10.13
  -10.21  -10.28  -10.34  -10.38  -10.39  -10.38  -10.33  -10.24  -10.11   -9.93
   -9.68   -9.35   -8.94   -8.43   -7.80   -7.05   -6.17   -5.15   -4.00   -2.74
   -1.39    0.00    1.39    2.74    4.00    5.15    6.17    7.05    7.80    8.43
    8.94    9.35    9.68    9.93   10.11   10.24   10.33   10.38   10.39   10.38
   10.34   10.28   10.21   10.13   10.03    9.93    9.82    9.70    9.58    9.46
    9.33    9.20    9.08    8.95    8.82    8.69    8.56    8.44    8.31    8.19
    8.07    7.95    7.84    7.72    7.61    7.50    7.39    7.28    7.18    7.08
    6.98    6.88    6.79    6.69    6.60    6.51    6.43    6.34    6.26    6.18
    6.10    6.02    5.94    5.87    5.80    5.72    5.65    5.59    5.52    5.46
    5.39    5.33    5.27    5.21    5.15    5.09    5.04    4.98    4.93    4.88
    4.83    4.78    4.73    4.68    4.63    4.58    4.54    4.49    4.45    4.41
   -4.59   -4.64   -4.68   -4.73   -4.78   -4.83   -4.88   -4.94   -4.99   -5.04
   -5.10   -5.16   -5.22   -5.28   -5.34   -5.40   -5.47   -5.53   -5.60   -5.67
   -5.74   -5.81   -5.89   -5.96   -6.04   -6.12   -6.20   -6.28   -6.37   -6.46
   -6.55   -6.64   -6.73   -6.83   -6.93   -7.03   -7.14   -7.24   -7.35   -7.47
   -7.58   -7.70   -7.82   -7.94   -8.07   -8.20   -8.33   -8.47   -8.61   -8.75
   -8.89   -9.04   -9.19   -9.34   -9.49   -9.65   -9.81   -9.96  -10.12  -10.28
  -10.44  -10.59  -10.74  -10.89  -11.02  -11.15  -11.27  -11.38  -11.47  -11.53
  -11.57  -11.57  -11.54  -11.45  -11.31  -11.10  -10.80  -10.40   -9.88   -9.23
   -8.41   -7.42   -6.25   -4.89   -3.36   -1.72    0.00    1.72    3.36    4.89
    6.25    7.42    8.41    9.23    9.88   10.40   10.80   11.10   11.31   11.45
   11.54   11.57   11.57   11.53   11.47   11.38   11.27   11.15   11.02   10.89
   10.74   10.59   10.44   10.28   10.12    9.96    9.81    9.65    9.49    9.34
    9.19    9.04    8.89    8.75    8.61    8.47    8.33    8.20    8.07    7.94
    7.82    7.70    7.58    7.47    7.35    7.24    7.14    7.03    6.93    6.83
    6.73    6.64    6.55    6.46    6.37    6.28    6.20    6.12    6.04    5.96
    5.89    5.81    5.74    5.67    5.60    5.53    5.47    5.40    5.34    5.28
    5.22    5.16    5.10    5.04    4.99    4.94    4.88    4.83    4.78    4.73
    4.68    4.64    4.59    4.54    4.50   -4.68   -4.73   -4.78   -4.83   -4.88
   -4.94   -4.99   -5.05   -5.10   -5.16   -5.22   -5.28   -5.34   -5.40   -5.47
   -5.54   -5.60   -5.67   -5.74   -5.82   -5.89   -5.97   -6.05   -6.13   -6.21
   -6.30   -6.38   -6.47   -6.56   -6.66   -6.75   -6.85   -6.96   -7.06   -7.17
   -7.28   -7.39   -7.51   -7.63   -7.75   -7.88   -8.01   -8.15   -8.28   -8.43
   -8.57   -8.72   -8.88   -9.03   -9.20   -9.36   -9.53   -9.71   -9.89  -10.07
  -10.26  -10.44  -10.64  -10.83  -11.03  -11.23  -11.43  -11.63  -11.82  -12.01
  -12.20  -12.38  -12.55  -12.70  -12.83  -12.94  -13.02  -13.06  -13.04  -12.97
  -12.82  -12.58  -12.22  -11.71  -11.04  -10.17   -9.07   -7.72   -6.10   -4.23
   -2.17    0.00    2.17    4.23    6.10    7.72    9.07   10.17   11.04   11.71
   12.22   12.58   12.82   12.97   13.04   13.06   13.02   12.94   12.83   12.70
   12.55   12.38   12.20   12.01   11.82   11.63   11.43   11.23   11.03   10.83
   10.64   10.44   10.26   10.07    9.89    9.71    9.53    9.36    9.20    9.03
    8.88    8.72    8.57    8.43    8.28    8.15    8.01    7.88    7.75    7.63
    7.51    7.39    7.28    7.17    7.06    6.96    6.85    6.75    6.66    6.56
    6.47    6.38    6.30    6.21    6.13    6.05    5.97    5.89    5.82    5.74
    5.67    5.60    5.54    5.47    5.40    5.34    5.28    5.22    5.16    5.10
    5.05    4.99    4.94    4.88    4.83    4.78    4.73    4.68    4.64    4.59
   -4.78   -4.83   -4.88   -4.93   -4.99   -5.04   -5.10   -5.16   -5.21   -5.27
   -5.34   -5.40   -5.46   -5.53   -5.60   -5.67   -5.74   -5.81   -5.89   -5.96
   -6.04   -6.12   -6.21   -6.29   -6.38   -6.47   -6.56   -6.66   -6.76   -6.86
   -6.96   -7.07   -7.18   -7.29   -7.41   -7.53   -7.65   -7.78   -7.91   -8.05
   -8.18   -8.33   -8.48   -8.63   -8.79   -8.95   -9.12   -9.29   -9.47   -9.66
   -9.85  -10.04  -10.24  -10.45  -10.67  -10.89  -11.11  -11.35  -11.58  -11.83
  -12.08  -12.33  -12.58  -12.84  -13.10  -13.36  -13.61  -13.86  -14.10  -14.32
  -14.53  -14.70  -14.84  -14.93  -14.96  -14.92  -14.77  -14.49  -14.05  -13.40
  -12.51  -11.30   -9.74   -7.80   -5.47   -2.83    0.00    2.83    5.47    7.80
    9.74   11.30   12.51   13.40   14.05   14.49   14.77   14.92   14.96   14.93
   14.84   14.70   14.53   14.32   14.10   13.86   13.61   13.36   13.10   12.84
   12.58   12.33   12.08   11.83   11.58   11.35   11.11   10.89   10.67   10.45
   10.24   10.04    9.85    9.66    9.47    9.29    9.12    8.95    8.79    8.63
    8.48    8.33    8.18    8.05    7.91    7.78    7.65    7.53    7.41    7.29
    7.18    7.07    6.96    6.86    6.76    6.66    6.56    6.47    6.38    6.29
    6.21    6.12    6.04    5.96    5.89    5.81    5.74    5.67    5.60    5.53
    5.46    5.40    5.34    5.27    5.21    5.16    5.10    5.04    4.99    4.93
    4.88    4.83    4.78    4.73    4.68   -4.87   -4.92   -4.98   -5.03   -5.09
   -5.15   -5.20   -5.26   -5.33   -5.39   -5.45   -5.52   -5.59   -5.65   -5.73
   -5.80   -5.87   -5.95   -6.03   -6.11   -6.19   -6.28   -6.37   -6.46   -6.55
   -6.64   -6.74   -6.84   -6.95   -7.06   -7.17   -7.28   -7.40   -7.52   -7.64
   -7.77   -7.91   -8.04   -8.19   -8.33   -8.49   -8.64   -8.81   -8.97   -9.15
   -9.33   -9.52   -9.71   -9.91  -10.12  -10.34  -10.56  -10.79  -11.03  -11.28
  -11.54  -11.81  -12.08  -12.37  -12.67  -12.97  -13.29  -13.61  -13.94  -14.28
  -14.62  -14.97  -15.32  -15.67  -16.01  -16.34  -16.66  -16.94  -17.19  -17.37
  -17.49  -17.50  -17.37  -17.06  -16.51  -15.65  -14.39  -12.64  -10.29   -7.33
   -3.83    0.00    3.83    7.33   10.29   12.64   14.39   15.65   16.51   17.06
   17.37   17.50   17.49   17.37   17.19   16.94   16.66   16.34   16.01   15.67
   15.32   14.97   14.62   14.28   13.94   13.61   13.29   12.97   12.67   12.37
   12.08   11.81   11.54   11.28   11.03   10.79   10.56   10.34   10.12    9.91
    9.71    9.52    9.33    9.15    8.97    8.81    8.64    8.49    8.33    8.19
    8.04    7.91    7.77    7.64    7.52    7.40    7.28    7.17    7.06    6.95
    6.84    6.74    6.64    6.55    6.46    6.37    6.28    6.19    6.11    6.03
    5.95    5.87    5.80    5.73    5.65    5.59    5.52    5.45    5.39    5.33
    5.26    5.20    5.15    5.09    5.03    4.98    4.92    4.87    4.82    4.77
   -4.96   -5.02   -5.07   -5.13   -5.19   -5.25   -5.31   -5.37   -5.43   -5.50
   -5.57   -5.63   -5.70   -5.78   -5.85   -5.93   -6.00   -6.08   -6.17   -6.25
   -6.34   -6.43   -6.52   -6.62   -6.71   -6.81   -6.92   -7.02   -7.13   -7.25
   -7.36   -7.49   -7.61   -7.74   -7.87   -8.01   -8.15   -8.30   -8.46   -8.61
   -8.78   -8.95   -9.13   -9.31   -9.50   -9.70   -9.91  -10.12  -10.34  -10.58
  -10.82  -11.07  -11.33  -11.61  -11.90  -12.19  -12.51  -12.83  -13.17  -13.53
  -13.89  -14.28  -14.68  -15.10  -15.53  -15.98  -16.45  -16.92  -17.41  -17.91
  -18.41  -18.91  -19.40  -19.86  -20.29  -20.65  -20.92  -21.06  -21.01  -20.70
  -20.01  -18.81  -16.92  -14.13  -10.31   -5.48    0.00    5.48   10.31   14.13
   16.92   18.81   20.01   20.70   21.01   21.06   20.92   20.65   20.29   19.86
   19.40   18.91   18.41   17.91   17.41   16.92   16.45   15.98   15.53   15.10
   14.68   14.28   13.89   13.53   13.17   12.83   12.51   12.19   11.90   11.61
   11.33   11.07   10.82   10.58   10.34   10.12    9.91    9.70    9.50    9.31
    9.13    8.95    8.78    8.61    8.46    8.30    8.15    8.01    7.87    7.74
    7.61    7.49    7.36    7.25    7.13    7.02    6.92    6.81    6.71    6.62
    6.52    6.43    6.34    6.25    6.17    6.08    6.00    5.93    5.85    5.78
    5.70    5.63    5.57    5.50    5.43    5.37    5.31    5.25    5.19    5.13
    5.07    5.02    4.96    4.91    4.86   -5.05   -5.11   -5.17   -5.23   -5.29
   -5.35   -5.41   -5.47   -5.54   -5.61   -5.68   -5.75   -5.82   -5.89   -5.97
   -6.05   -6.13   -6.21   -6.30   -6.39   -6.48   -6.57   -6.67   -6.77   -6.87
   -6.98   -7.08   -7.20   -7.31   -7.43   -7.56   -7.68   -7.81   -7.95   -8.09
   -8.24   -8.39   -8.55   -8.71   -8.88   -9.06   -9.24   -9.43   -9.63   -9.84
  -10.06  -10.28  -10.52  -10.76  -11.02  -11.29  -11.57  -11.86  -12.17  -12.49
  -12.83  -13.19  -13.57  -13.96  -14.38  -14.82  -15.28  -15.77  -16.28  -16.82
  -17.40  -18.00  -18.63  -19.29  -19.99  -20.71  -21.45  -22.22  -23.00  -23.77
  -24.52  -25.22  -25.82  -26.25  -26.41  -26.18  -25.32  -23.54  -20.40  -15.45
   -8.46    0.00    8.46   15.45   20.40   23.54   25.32   26.18   26.41   26.25
   25.82   25.22   24.52   23.77   23.00   22.22   21.45   20.71   19.99   19.29
   18.63   18.00   17.40   16.82   16.28   15.77   15.28   14.82   14.38   13.96
   13.57   13.19   12.83   12.49   12.17   11.86   11.57   11.29   11.02   10.76
   10.52   10.28   10.06    9.84    9.63    9.43    9.24    9.06    8.88    8.71
    8.55    8.39    8.24    8.09    7.95    7.81    7.68    7.56    7.43    7.31
    7.20    7.08    6.98    6.87    6.77    6.67    6.57    6.48    6.39    6.30
    6.21    6.13    6.05    5.97    5.89    5.82    5.75    5.68    5.61    5.54
    5.47    5.41    5.35    5.29    5.23    5.17    5.11    5.05    5.00    4.95
   -5.14   -5.20   -5.26   -5.32   -5.38   -5.44   -5.51   -5.57   -5.64   -5.71
   -5.78   -5.85   -5.93   -6.01   -6.09   -6.17   -6.25   -6.34   -6.43   -6.52
   -6.61   -6.71   -6.81   -6.91   -7.02   -7.13   -7.24   -7.36   -7.48   -7.60
   -7.73   -7.87   -8.01   -8.15   -8.30   -8.45   -8.61   -8.78   -8.95   -9.13
   -9.32   -9.52   -9.72   -9.93  -10.15  -10.39  -10.63  -10.88  -11.15  -11.43
[...]
    6.14    6.07    6.00    5.94    5.87    5.81    5.75    5.69    5.63    5.57
   -5.71   -5.77   -5.83   -5.89   -5.95   -6.02   -6.08   -6.15   -6.21   -6.28
   -6.36   -6.43   -6.50   -6.58   -6.66   -6.74   -6.82   -6.90   -6.99   -7.07
   -7.16   -7.26   -7.35   -7.45   -7.55   -7.65   -7.75   -7.86   -7.97   -8.08
   -8.20   -8.31   -8.44   -8.56   -8.69   -8.82   -8.95   -9.09   -9.24   -9.38
   -9.53   -9.69   -9.85  -10.01  -10.18  -10.35  -10.52  -10.70  -10.89  -11.08
  -11.27  -11.47  -11.68  -11.89  -12.10  -12.31  -12.53  -12.76  -12.98  -13.21
  -13.44  -13.67  -13.90  -14.13  -14.36  -14.57  -14.78  -14.98  -15.16  -15.33
  -15.46  -15.57  -15.63  -15.65  -15.59  -15.46  -15.23  -14.86  -14.34  -13.62
  -12.66  -11.40   -9.80   -7.82   -5.48   -2.83    0.00    2.83    5.48    7.82
    9.80   11.40   12.66   13.62   14.34   14.86   15.23   15.46   15.59   15.65
   15.63   15.57   15.46   15.33   15.16   14.98   14.78   14.57   14.36   14.13
   13.90   13.67   13.44   13.21   12.98   12.76   12.53   12.31   12.10   11.89
   11.68   11.47   11.27   11.08   10.89   10.70   10.52   10.35   10.18   10.01
    9.85    9.69    9.53    9.38    9.24    9.09    8.95    8.82    8.69    8.56
    8.44    8.31    8.20    8.08    7.97    7.86    7.75    7.65    7.55    7.45
    7.35    7.26    7.16    7.07    6.99    6.90    6.82    6.74    6.66    6.58
    6.50    6.43    6.36    6.28    6.21    6.15    6.08    6.02    5.95    5.89
    5.83    5.77    5.71    5.65    5.60   -5.72   -5.78   -5.84   -5.89   -5.96
   -6.02   -6.08   -6.14   -6.21   -6.28   -6.34   -6.41   -6.49   -6.56   -6.63
   -6.71   -6.79   -6.87   -6.95   -7.03   -7.11   -7.20   -7.29   -7.38   -7.47
   -7.57   -7.67   -7.77   -7.87   -7.97   -8.08   -8.19   -8.30   -8.41   -8.53
   -8.65   -8.77   -8.90   -9.03   -9.16   -9.29   -9.43   -9.57   -9.71   -9.86
  -10.01  -10.16  -10.31  -10.47  -10.63  -10.80  -10.96  -11.13  -11.30  -11.47
  -11.65  -11.82  -11.99  -12.17  -12.34  -12.51  -12.68  -12.84  -13.00  -13.15
  -13.29  -13.42  -13.53  -13.62  -13.69  -13.73  -13.74  -13.71  -13.62  -13.47
  -13.25  -12.93  -12.50  -11.94  -11.21  -10.29   -9.14   -7.75   -6.11   -4.23
   -2.17    0.00    2.17    4.23    6.11    7.75    9.14   10.29   11.21   11.94
   12.50   12.93   13.25   13.47   13.62   13.71   13.74   13.73   13.69   13.62
   13.53   13.42   13.29   13.15   13.00   12.84   12.68   12.51   12.34   12.17
   11.99   11.82   11.65   11.47   11.30   11.13   10.96   10.80   10.63   10.47
   10.31   10.16   10.01    9.86    9.71    9.57    9.43    9.29    9.16    9.03
    8.90    8.77    8.65    8.53    8.41    8.30    8.19    8.08    7.97    7.87
    7.77    7.67    7.57    7.47    7.38    7.29    7.20    7.11    7.03    6.95
    6.87    6.79    6.71    6.63    6.56    6.49    6.41    6.34    6.28    6.21
    6.14    6.08    6.02    5.96    5.89    5.84    5.78    5.72    5.67    5.61
   -5.72   -5.78   -5.83   -5.89   -5.95   -6.01   -6.07   -6.13   -6.19   -6.25
   -6.32   -6.39   -6.45   -6.52   -6.59   -6.66   -6.74   -6.81   -6.89   -6.97
   -7.05   -7.13   -7.21   -7.29   -7.38   -7.47   -7.56   -7.65   -7.74   -7.84
   -7.94   -8.04   -8.14   -8.24   -8.35   -8.45   -8.56   -8.68   -8.79   -8.90
   -9.02   -9.14   -9.26   -9.39   -9.51   -9.64   -9.77   -9.90  -10.03  -10.17
  -10.30  -10.44  -10.57  -10.71  -10.84  -10.98  -11.11  -11.24  -11.37  -11.50
  -11.62  -11.74  -11.85  -11.95  -12.04  -12.12  -12.18  -12.23  -12.26  -12.26
  -12.24  -12.18  -12.07  -11.92  -11.72  -11.44  -11.08  -10.62  -10.05   -9.35
   -8.49   -7.47   -6.27   -4.90   -3.37   -1.72    0.00    1.72    3.37    4.90
    6.27    7.47    8.49    9.35   10.05   10.62   11.08   11.44   11.72   11.92
   12.07   12.18   12.24   12.26   12.26   12.23   12.18   12.12   12.04   11.95
   11.85   11.74   11.62   11.50   11.37   11.24   11.11   10.98   10.84   10.71
   10.57   10.44   10.30   10.17   10.03    9.90    9.77    9.64    9.51    9.39
    9.26    9.14    9.02    8.90    8.79    8.68    8.56    8.45    8.35    8.24
    8.14    8.04    7.94    7.84    7.74    7.65    7.56    7.47    7.38    7.29
    7.21    7.13    7.05    6.97    6.89    6.81    6.74    6.66    6.59    6.52
    6.45    6.39    6.32    6.25    6.19    6.13    6.07    6.01    5.95    5.89
    5.83    5.78    5.72    5.67    5.62   -5.71   -5.76   -5.82   -5.87   -5.93
   -5.98   -6.04   -6.10   -6.16   -6.22   -6.28   -6.34   -6.41   -6.47   -6.54
   -6.61   -6.67   -6.74   -6.81   -6.89   -6.96   -7.04   -7.11   -7.19   -7.27
   -7.35   -7.43   -7.52   -7.60   -7.69   -7.77   -7.86   -7.95   -8.05   -8.14
   -8.24   -8.33   -8.43   -8.53   -8.63   -8.73   -8.84   -8.94   -9.04   -9.15
   -9.26   -9.37   -9.47   -9.58   -9.69   -9.80   -9.91  -10.01  -10.12  -10.22
  -10.33  -10.43  -10.52  -10.61  -10.70  -10.78  -10.86  -10.92  -10.98  -11.03
  -11.06  -11.08  -11.08  -11.06  -11.01  -10.94  -10.83  -10.69  -10.50  -10.25
   -9.95   -9.57   -9.11   -8.56   -7.90   -7.11   -6.21   -5.17   -4.01   -2.74
   -1.39    0.00    1.39    2.74    4.01    5.17    6.21    7.11    7.90    8.56
    9.11    9.57    9.95   10.25   10.50   10.69   10.83   10.94   11.01   11.06
   11.08   11.08   11.06   11.03   10.98   10.92   10.86   10.78   10.70   10.61
   10.52   10.43   10.33   10.22   10.12   10.01    9.91    9.80    9.69    9.58
    9.47    9.37    9.26    9.15    9.04    8.94    8.84    8.73    8.63    8.53
    8.43    8.33    8.24    8.14    8.05    7.95    7.86    7.77    7.69    7.60
    7.52    7.43    7.35    7.27    7.19    7.11    7.04    6.96    6.89    6.81
    6.74    6.67    6.61    6.54    6.47    6.41    6.34    6.28    6.22    6.16
    6.10    6.04    5.98    5.93    5.87    5.82    5.76    5.71    5.66    5.61
   -5.69   -5.74   -5.79   -5.84   -5.90   -5.95   -6.00   -6.06   -6.11   -6.17
   -6.23   -6.29   -6.35   -6.41   -6.47   -6.53   -6.59   -6.66   -6.72   -6.79
   -6.86   -6.93   -7.00   -7.07   -7.14   -7.21   -7.29   -7.36   -7.44   -7.52
   -7.59   -7.67   -7.75   -7.84   -7.92   -8.00   -8.09   -8.17   -8.26   -8.34
   -8.43   -8.52   -8.60   -8.69   -8.78   -8.87   -8.96   -9.04   -9.13   -9.22
   -9.30   -9.39   -9.47   -9.55   -9.63   -9.70   -9.77   -9.84   -9.90   -9.95
  -10.00  -10.05  -10.08  -10.10  -10.11  -10.11  -10.09  -10.06  -10.00   -9.92
   -9.82   -9.68   -9.51   -9.29   -9.03   -8.71   -8.33   -7.88   -7.36   -6.74
   -6.03   -5.23   -4.33   -3.34   -2.27   -1.15    0.00    1.15    2.27    3.34
    4.33    5.23    6.03    6.74    7.36    7.88    8.33    8.71    9.03    9.29
    9.51    9.68    9.82    9.92   10.00   10.06   10.09   10.11   10.11   10.10
   10.08   10.05   10.00    9.95    9.90    9.84    9.77    9.70    9.63    9.55
    9.47    9.39    9.30    9.22    9.13    9.04    8.96    8.87    8.78    8.69
    8.60    8.52    8.43    8.34    8.26    8.17    8.09    8.00    7.92    7.84
    7.75    7.67    7.59    7.52    7.44    7.36    7.29    7.21    7.14    7.07
    7.00    6.93    6.86    6.79    6.72    6.66    6.59    6.53    6.47    6.41
    6.35    6.29    6.23    6.17    6.11    6.06    6.00    5.95    5.90    5.84
    5.79    5.74    5.69    5.64    5.60   -5.66   -5.71   -5.76   -5.81   -5.86
   -5.90   -5.96   -6.01   -6.06   -6.11   -6.16   -6.22   -6.27   -6.33   -6.39
   -6.44   -6.50   -6.56   -6.62   -6.68   -6.74   -6.81   -6.87   -6.93   -7.00
   -7.06   -7.13   -7.20   -7.26   -7.33   -7.40   -7.47   -7.54   -7.61   -7.68
   -7.75   -7.83   -7.90   -7.97   -8.04   -8.12   -8.19   -8.26   -8.34   -8.41
   -8.48   -8.55   -8.62   -8.69   -8.75   -8.82   -8.88   -8.94   -9.00   -9.06
   -9.11   -9.15   -9.20   -9.23   -9.26   -9.29   -9.30   -9.31   -9.30   -9.29
   -9.26   -9.22   -9.15   -9.07   -8.97   -8.84   -8.68   -8.49   -8.27   -8.00
   -7.68   -7.31   -6.88   -6.38   -5.82   -5.18   -4.46   -3.68   -2.82   -1.92
   -0.97    0.00    0.97    1.92    2.82    3.68    4.46    5.18    5.82    6.38
    6.88    7.31    7.68    8.00    8.27    8.49    8.68    8.84    8.97    9.07
    9.15    9.22    9.26    9.29    9.30    9.31    9.30    9.29    9.26    9.23
    9.20    9.15    9.11    9.06    9.00    8.94    8.88    8.82    8.75    8.69
    8.62    8.55    8.48    8.41    8.34    8.26    8.19    8.12    8.04    7.97
    7.90    7.83    7.75    7.68    7.61    7.54    7.47    7.40    7.33    7.26
    7.20    7.13    7.06    7.00    6.93    6.87    6.81    6.74    6.68    6.62
    6.56    6.50    6.44    6.39    6.33    6.27    6.22    6.16    6.11    6.06
    6.01    5.96    5.90    5.86    5.81    5.76    5.71    5.66    5.62    5.57
   -5.62   -5.67   -5.71   -5.76   -5.80   -5.85   -5.90   -5.94   -5.99   -6.04
   -6.09   -6.14   -6.19   -6.24   -6.29   -6.35   -6.40   -6.45   -6.51   -6.56
   -6.62   -6.67   -6.73   -6.79   -6.84   -6.90   -6.96   -7.02   -7.08   -7.14
   -7.20   -7.26   -7.32   -7.38   -7.44   -7.50   -7.56   -7.62   -7.68   -7.74
   -7.80   -7.86   -7.92   -7.98   -8.04   -8.10   -8.15   -8.20   -8.26   -8.31
   -8.35   -8.40   -8.44   -8.48   -8.52   -8.55   -8.58   -8.60   -8.62   -8.63
   -8.63   -8.62   -8.61   -8.58   -8.55   -8.50   -8.44   -8.36   -8.26   -8.14
   -7.99   -7.82   -7.62   -7.39   -7.12   -6.81   -6.45   -6.04   -5.58   -5.06
   -4.48   -3.85   -3.16   -2.42   -1.64   -0.83    0.00    0.83    1.64    2.42
    3.16    3.85    4.48    5.06    5.58    6.04    6.45    6.81    7.12    7.39
    7.62    7.82    7.99    8.14    8.26    8.36    8.44    8.50    8.55    8.58
    8.61    8.62    8.63    8.63    8.62    8.60    8.58    8.55    8.52    8.48
    8.44    8.40    8.35    8.31    8.26    8.20    8.15    8.10    8.04    7.98
    7.92    7.86    7.80    7.74    7.68    7.62    7.56    7.50    7.44    7.38
    7.32    7.26    7.20    7.14    7.08    7.02    6.96    6.90    6.84    6.79
    6.73    6.67    6.62    6.56    6.51    6.45    6.40    6.35    6.29    6.24
    6.19    6.14    6.09    6.04    5.99    5.94    5.90    5.85    5.80    5.76
    5.71    5.67    5.62    5.58    5.54   -5.58   -5.62   -5.66   -5.70   -5.74
   -5.78   -5.83   -5.87   -5.92   -5.96   -6.00   -6.05   -6.10   -6.14   -6.19
   -6.24   -6.28   -6.33   -6.38   -6.43   -6.48   -6.53   -6.58   -6.63   -6.68
   -6.73   -6.78   -6.83   -6.88   -6.94   -6.99   -7.04   -7.09   -7.14   -7.19
   -7.24   -7.29   -7.34   -7.39   -7.44   -7.49   -7.54   -7.59   -7.63   -7.68
   -7.72   -7.76   -7.80   -7.84   -7.88   -7.91   -7.94   -7.97   -7.99   -8.01
   -8.03   -8.04   -8.05   -8.05   -8.04   -8.03   -8.01   -7.98   -7.93   -7.88
   -7.82   -7.74   -7.65   -7.53   -7.40   -7.25   -7.07   -6.87   -6.64   -6.37
   -6.07   -5.73   -5.34   -4.91   -4.44   -3.92   -3.35   -2.74   -2.09   -1.41
   -0.71    0.00    0.71    1.41    2.09    2.74    3.35    3.92    4.44    4.91
    5.34    5.73    6.07    6.37    6.64    6.87    7.07    7.25    7.40    7.53
    7.65    7.74    7.82    7.88    7.93    7.98    8.01    8.03    8.04    8.05
    8.05    8.04    8.03    8.01    7.99    7.97    7.94    7.91    7.88    7.84
    7.80    7.76    7.72    7.68    7.63    7.59    7.54    7.49    7.44    7.39
    7.34    7.29    7.24    7.19    7.14    7.09    7.04    6.99    6.94    6.88
    6.83    6.78    6.73    6.68    6.63    6.58    6.53    6.48    6.43    6.38
    6.33    6.28    6.24    6.19    6.14    6.10    6.05    6.00    5.96    5.92
    5.87    5.83    5.78    5.74    5.70    5.66    5.62    5.58    5.54    5.50
   -5.52   -5.56   -5.59   -5.63   -5.67   -5.71   -5.75   -5.79   -5.83   -5.87
   -5.91   -5.95   -5.99   -6.03   -6.08   -6.12   -6.16   -6.20   -6.25   -6.29
   -6.33   -6.38   -6.42   -6.46   -6.51   -6.55   -6.60   -6.64   -6.68   -6.73
   -6.77   -6.82   -6.86   -6.90   -6.94   -6.99   -7.03   -7.07   -7.11   -7.15
   -7.19   -7.22   -7.26   -7.30   -7.33   -7.36   -7.39   -7.42   -7.45   -7.47
   -7.49   -7.51   -7.52   -7.54   -7.54   -7.55   -7.54   -7.54   -7.52   -7.50
   -7.48   -7.44   -7.40   -7.35   -7.28   -7.21   -7.12   -7.02   -6.90   -6.76
   -6.60   -6.42   -6.22   -5.99   -5.73   -5.44   -5.11   -4.75   -4.36   -3.92
   -3.45   -2.94   -2.40   -1.83   -1.23   -0.62    0.00    0.62    1.23    1.83
    2.40    2.94    3.45    3.92    4.36    4.75    5.11    5.44    5.73    5.99
    6.22    6.42    6.60    6.76    6.90    7.02    7.12    7.21    7.28    7.35
    7.40    7.44    7.48    7.50    7.52    7.54    7.54    7.55    7.54    7.54
    7.52    7.51    7.49    7.47    7.45    7.42    7.39    7.36    7.33    7.30
    7.26    7.22    7.19    7.15    7.11    7.07    7.03    6.99    6.94    6.90
    6.86    6.82    6.77    6.73    6.68    6.64    6.60    6.55    6.51    6.46
    6.42    6.38    6.33    6.29    6.25    6.20    6.16    6.12    6.08    6.03
    5.99    5.95    5.91    5.87    5.83    5.79    5.75    5.71    5.67    5.63
    5.59    5.56    5.52    5.48    5.45   -5.45   -5.49   -5.52   -5.56   -5.59
   -5.63   -5.66   -5.70   -5.74   -5.77   -5.81   -5.85   -5.88   -5.92   -5.96
   -5.99   -6.03   -6.07   -6.11   -6.14   -6.18   -6.22   -6.26   -6.30   -6.33
   -6.37   -6.41   -6.45   -6.48   -6.52   -6.56   -6.59   -6.63   -6.66   -6.70
   -6.73   -6.76   -6.80   -6.83   -6.86   -6.89   -6.92   -6.94   -6.97   -6.99
   -7.02   -7.04   -7.05   -7.07   -7.08   -7.09   -7.10   -7.11   -7.11   -7.10
   -7.10   -7.08   -7.06   -7.04   -7.01   -6.97   -6.93   -6.88   -6.81   -6.74
   -6.66   -6.56   -6.45   -6.33   -6.19   -6.03   -5.85   -5.65   -5.42   -5.17
   -4.90   -4.59   -4.25   -3.89   -3.49   -3.06   -2.60   -2.12   -1.61   -1.08
   -0.55    0.00    0.55    1.08    1.61    2.12    2.60    3.06    3.49    3.89
    4.25    4.59    4.90    5.17    5.42    5.65    5.85    6.03    6.19    6.33
    6.45    6.56    6.66    6.74    6.81    6.88    6.93    6.97    7.01    7.04
    7.06    7.08    7.10    7.10    7.11    7.11    7.10    7.09    7.08    7.07
    7.05    7.04    7.02    6.99    6.97    6.94    6.92    6.89    6.86    6.83
    6.80    6.76    6.73    6.70    6.66    6.63    6.59    6.56    6.52    6.48
    6.45    6.41    6.37    6.33    6.30    6.26    6.22    6.18    6.14    6.11
    6.07    6.03    5.99    5.96    5.92    5.88    5.85    5.81    5.77    5.74
    5.70    5.66    5.63    5.59    5.56    5.52    5.49    5.45    5.42    5.39
   -5.38   -5.41   -5.45   -5.48   -5.51   -5.54   -5.57   -5.60   -5.64   -5.67
   -5.70   -5.73   -5.76   -5.80   -5.83   -5.86   -5.90   -5.93   -5.96   -5.99
   -6.03   -6.06   -6.09   -6.12   -6.15   -6.19   -6.22   -6.25   -6.28   -6.31
   -6.34   -6.37   -6.40   -6.43   -6.45   -6.48   -6.51   -6.53   -6.56   -6.58
   -6.60   -6.62   -6.64   -6.66   -6.67   -6.69   -6.70   -6.71   -6.71   -6.72
   -6.72   -6.72   -6.71   -6.71   -6.69   -6.68   -6.66   -6.63   -6.60   -6.56
   -6.52   -6.46   -6.40   -6.33   -6.25   -6.17   -6.06   -5.95   -5.82   -5.68
   -5.52   -5.34   -5.15   -4.93   -4.69   -4.43   -4.14   -3.83   -3.49   -3.12
   -2.73   -2.32   -1.88   -1.43   -0.96   -0.48    0.00    0.48    0.96    1.43
    1.88    2.32    2.73    3.12    3.49    3.83    4.14    4.43    4.69    4.93
    5.15    5.34    5.52    5.68    5.82    5.95    6.06    6.17    6.25    6.33
    6.40    6.46    6.52    6.56    6.60    6.63    6.66    6.68    6.69    6.71
    6.71    6.72    6.72    6.72    6.71    6.71    6.70    6.69    6.67    6.66
    6.64    6.62    6.60    6.58    6.56    6.53    6.51    6.48    6.45    6.43
    6.40    6.37    6.34    6.31    6.28    6.25    6.22    6.19    6.15    6.12
    6.09    6.06    6.03    5.99    5.96    5.93    5.90    5.86    5.83    5.80
    5.76    5.73    5.70    5.67    5.64    5.60    5.57    5.54    5.51    5.48
    5.45    5.41    5.38    5.35    5.32   -5.31   -5.33   -5.36   -5.39   -5.42
   -5.44   -5.47   -5.50   -5.53   -5.56   -5.59   -5.61   -5.64   -5.67   -5.70
   -5.73   -5.76   -5.78   -5.81   -5.84   -5.87   -5.89   -5.92   -5.95   -5.98
   -6.00   -6.03   -6.05   -6.08   -6.10   -6.13   -6.15   -6.17   -6.19   -6.22
   -6.24   -6.25   -6.27   -6.29   -6.31   -6.32   -6.33   -6.35   -6.36   -6.37
   -6.37   -6.38   -6.38   -6.38   -6.38   -6.37   -6.36   -6.35   -6.33   -6.31
   -6.29   -6.26   -6.23   -6.19   -6.15   -6.09   -6.04   -5.97   -5.90   -5.81
   -5.72   -5.62   -5.50   -5.37   -5.23   -5.07   -4.90   -4.71   -4.50   -4.27
   -4.02   -3.75   -3.46   -3.14   -2.81   -2.45   -2.08   -1.69   -1.28   -0.86
   -0.43    0.00    0.43    0.86    1.28    1.69    2.08    2.45    2.81    3.14
    3.46    3.75    4.02    4.27    4.50    4.71    4.90    5.07    5.23    5.37
    5.50    5.62    5.72    5.81    5.90    5.97    6.04    6.09    6.15    6.19
    6.23    6.26    6.29    6.31    6.33    6.35    6.36    6.37    6.38    6.38
    6.38    6.38    6.37    6.37    6.36    6.35    6.33    6.32    6.31    6.29
    6.27    6.25    6.24    6.22    6.19    6.17    6.15    6.13    6.10    6.08
    6.05    6.03    6.00    5.98    5.95    5.92    5.89    5.87    5.84    5.81
    5.78    5.76    5.73    5.70    5.67    5.64    5.61    5.59    5.56    5.53
    5.50    5.47    5.44    5.42    5.39    5.36    5.33    5.31    5.28    5.25
   -5.22   -5.25   -5.27   -5.30   -5.32   -5.35   -5.37   -5.39   -5.42   -5.44
   -5.47   -5.49   -5.52   -5.54   -5.57   -5.59   -5.61   -5.64   -5.66   -5.68
   -5.71   -5.73   -5.75   -5.77   -5.80   -5.82   -5.84   -5.86   -5.88   -5.90
   -5.92   -5.93   -5.95   -5.97   -5.98   -6.00   -6.01   -6.02   -6.03   -6.05
   -6.05   -6.06   -6.07   -6.07   -6.07   -6.07   -6.07   -6.07   -6.06   -6.05
   -6.04   -6.03   -6.01   -5.99   -5.96   -5.93   -5.90   -5.86   -5.82   -5.77
   -5.71   -5.65   -5.58   -5.50   -5.41   -5.32   -5.21   -5.09   -4.97   -4.83
   -4.67   -4.50   -4.32   -4.12   -3.90   -3.66   -3.41   -3.14   -2.85   -2.54
   -2.21   -1.87   -1.52   -1.15   -0.77   -0.39    0.00    0.39    0.77    1.15
    1.52    1.87    2.21    2.54    2.85    3.14    3.41    3.66    3.90    4.12
    4.32    4.50    4.67    4.83    4.97    5.09    5.21    5.32    5.41    5.50
    5.58    5.65    5.71    5.77    5.82    5.86    5.90    5.93    5.96    5.99
    6.01    6.03    6.04    6.05    6.06    6.07    6.07    6.07    6.07    6.07
    6.07    6.06    6.05    6.05    6.03    6.02    6.01    6.00    5.98    5.97
    5.95    5.93    5.92    5.90    5.88    5.86    5.84    5.82    5.80    5.77
    5.75    5.73    5.71    5.68    5.66    5.64    5.61    5.59    5.57    5.54
    5.52    5.49    5.47    5.44    5.42    5.39    5.37    5.35    5.32    5.30
    5.27    5.25    5.22    5.20    5.17   -5.13   -5.16   -5.18   -5.20   -5.22
   -5.24   -5.26   -5.28   -5.31   -5.33   -5.35   -5.37   -5.39   -5.41   -5.43
   -5.45   -5.47   -5.49   -5.51   -5.53   -5.55   -5.57   -5.58   -5.60   -5.62
   -5.64   -5.65   -5.67   -5.68   -5.70   -5.71   -5.72   -5.74   -5.75   -5.76
   -5.77   -5.78   -5.78   -5.79   -5.79   -5.80   -5.80   -5.80   -5.80   -5.80
   -5.79   -5.79   -5.78   -5.76   -5.75   -5.73   -5.71   -5.69   -5.66   -5.63
   -5.60   -5.56   -5.52   -5.47   -5.42   -5.36   -5.29   -5.22   -5.14   -5.05
   -4.95   -4.85   -4.73   -4.60   -4.46   -4.31   -4.15   -3.97   -3.78   -3.57
   -3.35   -3.11   -2.86   -2.59   -2.31   -2.01   -1.70   -1.37   -1.04   -0.70
   -0.35    0.00    0.35    0.70    1.04    1.37    1.70    2.01    2.31    2.59
    2.86    3.11    3.35    3.57    3.78    3.97    4.15    4.31    4.46    4.60
    4.73    4.85    4.95    5.05    5.14    5.22    5.29    5.36    5.42    5.47
    5.52    5.56    5.60    5.63    5.66    5.69    5.71    5.73    5.75    5.76
    5.78    5.79    5.79    5.80    5.80    5.80    5.80    5.80    5.79    5.79
    5.78    5.78    5.77    5.76    5.75    5.74    5.72    5.71    5.70    5.68
    5.67    5.65    5.64    5.62    5.60    5.58    5.57    5.55    5.53    5.51
    5.49    5.47    5.45    5.43    5.41    5.39    5.37    5.35    5.33    5.31
    5.28    5.26    5.24    5.22    5.20    5.18    5.16    5.13    5.11    5.09
