$ WAVEWATCH III Point output post-processing
$ ------------------------------------------
  19680606 000000  3600.  999
$
  1
  2
  3
  4
 -1
$
  2
  1  50
EOF
