$ WAVEWATCH III shell input file
$ ------------------------------
   T T
   F T
   F T
   T
   F
   F
   F
$
   19680606 000000
   19680606 120000
$
   1
$
   19680606 000000    450  19680607 000000
$-------------------------------------------------------------------------------------------------------------------
$D C W D W  I H L T T  T C F D S  D P P P P  P P W P D  F C C U C  F T T W W  W W A U B  F T S T J  F T U M M  P U U
$P U N T L  C S   0    M G P I P  P H T L T  S W S N T  C F F S H  A A W C C  C C B B E  B B X W    O U S S S  2 S S
$T R D   V  E     2    1 E   R R    S P P H  I S F R D    X D T A  W W A C F  H M R R D  B B Y O    C S S S C  S 1 2
$-------------------------------------------------------------------------------------------------------------------
 T T T T T  T T T T T  T T T T T  T T T T T  T T T T T  T T T T T  T F F F F  F F F F F  F F F F F  F F F F F  F F F
   19680606 000000    450  19680607 000000
   100.E3 100.E3  'point_A   '
   150.E3 150.E3  'point_B   '
    50.E3 180.E3  'point_C   '
    60.E3 170.E3  'point_D   '
     0.E3   0.E3  'STOPSTRING'
   19680606 000000      0  19680607 000000
   19680606 000000      0  19680607 000000
   19680606 000000      0  19680607 000000
   19680606 000000      0  19680607 000000
$
   'LEV' 19680606 000000    1.5
   'LEV' 19680606 010000    1.0
   'LEV' 19680606 020000    0.5
   'LEV' 19680606 030000    0.0
   'LEV' 19680606 040000   -0.5
   'LEV' 19680606 050000   -1.0
   'LEV' 19680606 060000   -1.5
   'LEV' 19680606 070000   -2.0
   'LEV' 19680606 080000   -2.5
   'LEV' 19680606 090000   -2.0
   'LEV' 19680606 100000   -1.0
   'LEV' 19680606 110000    0.0
   'LEV' 19680606 120000    0.0
   'STP'
