$ WAVEWATCH III Grid output post-processing
$ -----------------------------------------
  19680606 000000 3600. 99
N
$  Options: DPT CUR WND DT  WLV ICE HS  L T02 T01 TM1 FP  DIR SPR DP EF 
$           TH1M STH1M PHS PTP PLP PDIR PSP WSF TWS PNR UST CHA CGE FAW 
$           TAW TWA WCC WCF WCH WCM SXY TWO BHD FOC TUS USS P2S WN USF 
$           P2L ABR UBR BED FBB TBB MSS MSC DTD FCT CFX CFT CFK US1 US2
DPT WLV HS DIR
$
  3 0
$
 1 999 1 999 1 1
