$ WAVEWATCH III shell input file
$ ------------------------------
   F T
   F T
   F T
   F
   F
   F
   F
$
   19680606 000000
   19680606 120000
$
   1
$
   19680606 000000    900  19680606 120000
$
N
HS T01 FP DIR 
$ 
   19680606 000000    900  19680606 120000
     0.   0.    'Point1'
     0.   5.E3  'Point2'
     0.  10.E3  'Point3'
     0.  15.E3  'Point4'
     0.  20.E3  'Point5'
     0.  25.E3  'Point6'
     0.  30.E3  'Point7'
     0.  35.E3  'Point8'
     0.  40.E3  'Point9'
     0.  45.E3  'Point10'
     0.  50.E3  'Point11'
     0.   0.    'STOPSTRING'
   19680606 000000      0  19680606 120000
   19680606 000000      0  19680606 120000
   19680606 000000      0  19680606 120000
   19680606 000000      0  19680606 120000
