$ WAVEWATCH III Point output post-processing
$ ------------------------------------------
  19680606 100000   3600. 3
$
   1
   2
   3
   4
   5
   6
   7
   8
   9
  10
  11
  -1
$
   2
   2  50
