$ WAVEWATCH III Grid output post-processing
$ -----------------------------------------
  19680606 010000 3600. 12
$
   F F F F F  T F F T T  F F F F F  F F F F F  F F F F F  F F F F F  F
$
  1 0
$
  2 2 1 2 12 1 F F F
