$ WAVEWATCH III shell input file
$ ------------------------------
   F T
   F T
   F T
   F
   F
   F
   F
$
   19680606 000000
   19680606 120000
$
   1
$
   19680606 000000    900  19680606 120000
     F F F F F  T F F T T  F F F F F  F F F F F  F F F F F  F F F F F  F
   19680606 000000    900  19680606 120000
     0.   0.    'Point   1 '
     0.   5.E3  'Point   2 '
     0.  10.E3  'Point   3 '
     0.  15.E3  'Point   4 '
     0.  20.E3  'Point   5 '
     0.  25.E3  'Point   6 '
     0.  30.E3  'Point   7 '
     0.  35.E3  'Point   8 '
     0.  40.E3  'Point   9 '
     0.  45.E3  'Point  10 '
     0.  50.E3  'Point  11 '
     0.   0.    'STOPSTRING'
   19680606 000000      0  19680606 120000
   19680606 000000      0  19680606 120000
   19680606 000000      0  19680606 120000
   19680606 000000      0  19680606 120000
