! -------------------------------------------------------------------- !
! WAVEWATCH III ww3_shel.nml - single-grid model                       !
! -------------------------------------------------------------------- !


! -------------------------------------------------------------------- !
! Define top-level model parameters via DOMAIN_NML namelist
! -------------------------------------------------------------------- !
&DOMAIN_NML
  DOMAIN%START   = '20110902 010000'
  DOMAIN%STOP    = '20110902 020000'
/

! -------------------------------------------------------------------- !
! Define each forcing via the INPUT_NML namelist
! -------------------------------------------------------------------- !
&INPUT_NML
  INPUT%FORCING%WINDS         = 'C'
/

! -------------------------------------------------------------------- !
! Define the output types point parameters via OUTPUT_TYPE_NML namelist
! -------------------------------------------------------------------- !
&OUTPUT_TYPE_NML
  TYPE%FIELD%LIST          = 'HS FP DIR DP CHA UST DPT CUR WND'
/

! -------------------------------------------------------------------- !
! Define output dates via OUTPUT_DATE_NML namelist
! -------------------------------------------------------------------- !
&OUTPUT_DATE_NML
  DATE%FIELD          = '20110902 010000' '180' '20110902 020000'
  DATE%RESTART        = '20110902 020000' '3600' '20110902 030000'
  DATE%BOUNDARY       = 'CHA RHO' '' ' '
/

! -------------------------------------------------------------------- !
! Define homogeneous input via HOMOG_COUNT_NML and HOMOG_INPUT_NML namelist
! -------------------------------------------------------------------- !
&HOMOG_COUNT_NML
  HOMOG_COUNT%N_WND                =  1
/

&HOMOG_INPUT_NML
  HOMOG_INPUT(1)%NAME        = 'WND'
  HOMOG_INPUT(1)%DATE        = ' '
  HOMOG_INPUT(1)%VALUE1      = 
  HOMOG_INPUT(1)%VALUE2      = 
  HOMOG_INPUT(1)%VALUE3      = 
/

! -------------------------------------------------------------------- !
! WAVEWATCH III - end of namelist                                      !
! -------------------------------------------------------------------- !
