WAVEWATCH III TRACK LOCATIONS DATA 
19680606 000000   25000   25000
19680606 060000   37500   37500
19680606 120000   50000   50000
19680606 180000   60000   60000
19680607 000000   75000   75000
19680607 060000   85000   85000
19680607 120000   95000   95000
19680607 180000   95000   95000
19680608 000000   95000   95000
