$ WAVEWATCH III Grid preprocessor input file
$ ------------------------------------------
  'Coarse inner nest             '
$
   1.1 0.04177 25 24 0.
$
   F T T F F F
   900.  900.  900.   15.
$
  &OUTS E3D=1, TH1MF=1, STH1MF=1, TH2MF=1, STH2MF=1 /
  &PRO2 DTIME = 0. /
$ &PRO2 DTIME = 21600. /
  &PRO3 WDTHCG = 0., WDTHTH = 0. /
END OF NAMELISTS
$
   'RECT' F 'NONE'
   13   13
    25.E3   25.E3   1.
   600.E3  600.E3   1.
$
  -0.1 0.25  10  -1000. 4 1 '(....)' 'UNIT' 'input'
$
   169*1
$
   10 1 1 '(....)' 'PART' 'mapsta.inp'
$
   1  1  T
   1 13  T
  13 13  T
  13  1  T
   1  1  T
   0  0  F
$
   0  0  F
   0  0
$
   0. 0. 0. 0.  0
