$ WAVEWATCH III multi-scale input file
$ ------------------------------------
  2 0 F 1 F F
$
  'outer' 'no' 'no' 'no' 'no' 'no' 'no' 'no'   1  1  0.00 1.00  F
  'coarse' 'no' 'no' 'no' 'no' 'no' 'no' 'no'   2  1  0.00 1.00  F
$ 'outer' 'no' 'no' 'no' 'no' 'no' 'no' 'no'   1  1  0.50 1.00  F
$ 'coarse' 'no' 'no' 'no' 'no' 'no' 'no' 'no'   2  1  0.00 0.50  F
$ 'outer' 'no' 'no' 'no' 'no' 'no' 'no' 'no'   1  1  0.25 1.00  F
$ 'coarse' 'no' 'no' 'no' 'no' 'no' 'no' 'no'   2  1  0.00 0.75  F
$
   19680606 000000   19680608 000000
$
   T  T
$
   19680606 000000   3600  19680608 000000
$-------------------------------------------------------------------------------------------------------------------
$ (1) Forcing Fields
  F
$ (2) Standard mean wave Parameters
  T
$ HS  LM  TZ  TE  TM  FP  DIR SPR DP
  T   F   F   F   F   F   F   F   F
$ (3) Frequency-dependent parameters
  F
$ (4) Spectral Partition Parameters
  F
$ (5) Atmosphere-waves layer
  F
$ (6) Wave-Ocean layer          
  F
$ (7) Wave-bottom layer 
  F
$ (8) Spectrum parameters
  F
$ (9) Numerical diagnostics
  F                       
$ (10) User defined       
  F
$
   19680606 000000   3600  19680608 000000
     750.E3 750.E3  'point_A   '
       0.E3   0.E3  'STOPSTRING'
   19680606 000000      0  19680608 000000
   19680606 000000      0  19680608 000000
   19680606 000000      0  19680608 000000
   19680606 000000      0  19680608 000000
$
  'the_end'  0
$
  'STP'
$
$ End of input file
