! -------------------------------------------------------------------- !
! WAVEWATCH III - ww3_grid.nml - Grid pre-processing                   !
! -------------------------------------------------------------------- !

! -------------------------------------------------------------------- !
! Define the spectrum parameterization via SPECTRUM_NML namelist
! -------------------------------------------------------------------- !
&SPECTRUM_NML
  SPECTRUM%XFR       =  1.1
  SPECTRUM%FREQ1     =  0.04177
  SPECTRUM%NK        =  25
  SPECTRUM%NTH       =  24
/

! -------------------------------------------------------------------- !
! Define the run parameterization via RUN_NML namelist
! -------------------------------------------------------------------- !
&RUN_NML
  RUN%FLCX         =  T
  RUN%FLCY         =  T
/

! -------------------------------------------------------------------- !
! Define the timesteps parameterization via TIMESTEPS_NML namelist
! -------------------------------------------------------------------- !
&TIMESTEPS_NML
  TIMESTEPS%DTMAX        =  900.
  TIMESTEPS%DTXY         =  900.
  TIMESTEPS%DTKTH        =  900.
  TIMESTEPS%DTMIN        =  15.
/

! -------------------------------------------------------------------- !
! Define the grid to preprocess via GRID_NML namelist
! -------------------------------------------------------------------- !
&GRID_NML
  GRID%NAME         =  'The outer grid @ 25 km'
  GRID%NML          =  '../input/namelists_curv_outer.nml'
  GRID%TYPE         =  'CURV'
  GRID%COORD        =  'CART'
  GRID%CLOS         =  'NONE'
  GRID%ZLIM         =  -0.1
  GRID%DMIN         =  0.25
/

! -------------------------------------------------------------------- !
! Define the curvilinear grid type via CURV_NML namelist
! -------------------------------------------------------------------- !
&CURV_NML
  CURV%NX              =  43
  CURV%NY              =  43
  CURV%XCOORD%FILENAME  =  '../input/xgrd.outer.inp'
  CURV%YCOORD%FILENAME  =  '../input/ygrd.outer.inp'
/

! -------------------------------------------------------------------- !
! Define the depth to preprocess via DEPTH_NML namelist
! -------------------------------------------------------------------- !
&DEPTH_NML
  DEPTH%SF        =  -1000.
  DEPTH%FILENAME  =  '../input/curv_outer.depth'
  DEPTH%IDLA      =  4
/

! -------------------------------------------------------------------- !
! WAVEWATCH III - end of namelist                                      !
! -------------------------------------------------------------------- !
