$ WAVEWATCH III Grid preprocessor input file
$ ------------------------------------------
  'The outer grid @ 25 km        '
$
   1.1 0.04177 25 24 0.
$
   F T T F F F
   900.  900.  900.   15.
$
  &OUTS E3D=1, TH1MF=1, STH1MF=1, TH2MF=1, STH2MF=1 /
  &PRO2 DTIME = 0. /
$ &PRO2 DTIME = 21600. /
  &PRO3 WDTHCG = 0., WDTHTH = 0. /
END OF NAMELISTS
$
   'RECT' F 'NONE'
   43   43
    25.E3   25.E3   1.
   -25.E3  -25.E3   1.
$
  -0.1 0.25  10  -1000. 4 1 '(....)' 'UNIT' 'input'
$
  1849*1
$
   10 1 1 '(....)' 'PART' 'mapsta.inp'
$
   0  0  F
   0  0  F
   0  0
$
     0.     0.     0.     0.     0
