! -------------------------------------------------------------------- !
! WAVEWATCH III - ww3_grid.nml - Grid pre-processing                   !
! -------------------------------------------------------------------- !

! -------------------------------------------------------------------- !
! Define the spectrum parameterization via SPECTRUM_NML namelist
! -------------------------------------------------------------------- !
&SPECTRUM_NML
  SPECTRUM%XFR       =  1.1
  SPECTRUM%FREQ1     =  0.04177
  SPECTRUM%NK        =  26
  SPECTRUM%NTH       =  24
/

! -------------------------------------------------------------------- !
! Define the run parameterization via RUN_NML namelist
! -------------------------------------------------------------------- !
&RUN_NML
  RUN%FLCX         =  T
  RUN%FLCY         =  T
/

! -------------------------------------------------------------------- !
! Define the timesteps parameterization via TIMESTEPS_NML namelist
! -------------------------------------------------------------------- !
&TIMESTEPS_NML
  TIMESTEPS%DTMAX        =  900.
  TIMESTEPS%DTXY         =  900.
  TIMESTEPS%DTKTH        =  900.
  TIMESTEPS%DTMIN        =  15.
/

! -------------------------------------------------------------------- !
! Define the grid to preprocess via GRID_NML namelist
! -------------------------------------------------------------------- !
&GRID_NML
  GRID%NAME         =  'Change in spectral resolution'
  GRID%NML          =  '../input/namelists_respec.nml'
  GRID%TYPE         =  'RECT'
  GRID%COORD        =  'CART'
  GRID%CLOS         =  'NONE'
  GRID%ZLIM         =  -0.1
  GRID%DMIN         =  0.25
/

! -------------------------------------------------------------------- !
! Define the rectilinear grid type via RECT_NML namelist
! -------------------------------------------------------------------- !
&RECT_NML
  RECT%NX           =  13
  RECT%NY           =  13
  RECT%SX           =  25.E3
  RECT%SY           =  25.E3
  RECT%X0           =  600.E3
  RECT%Y0           =  600.E3
/

! -------------------------------------------------------------------- !
! Define the depth to preprocess via DEPTH_NML namelist
! -------------------------------------------------------------------- !
&DEPTH_NML
  DEPTH%SF        =  -1000.
  DEPTH%FILENAME  =  '../input/respec.depth'
  DEPTH%IDLA      =  4
/

! -------------------------------------------------------------------- !
! Define the input boundary points via INBND_COUNT_NML and
!                                      INBND_POINT_NML namelist
! -------------------------------------------------------------------- !
&INBND_COUNT_NML
  INBND_COUNT%N_POINT    =  5
/

&INBND_POINT_NML
  INBND_POINT(1)         =  1 1 T
  INBND_POINT(2)         =  1 13 T
  INBND_POINT(3)         =  13 13 T
  INBND_POINT(4)         =  13 1 T
  INBND_POINT(5)         =  1 1 T
/

! -------------------------------------------------------------------- !
! WAVEWATCH III - end of namelist                                      !
! -------------------------------------------------------------------- !
