$ WAVEWATCH III multi-scale input file
$ ------------------------------------
  2 0 F 1 F F
$
  'outer' 'no' 'no' 'no' 'no' 'no' 'no' 'no' 'no' 'no'   1  1  0.00 1.00  F
  'tiny' 'no' 'no' 'no' 'no' 'no' 'no' 'no' 'no' 'no'   2  1  0.00 1.00  F
$
   19680606 000000   19680608 000000
$
   T  T
$
   19680606 000000   3600  19680608 000000
     N
     HS FP DP
   19680606 000000   3600  19680608 000000
     750.E3 750.E3  'point_A'
       0.E3   0.E3  'STOPSTRING'
   19680606 000000      0  19680608 000000
   19680606 000000      0  19680608 000000
   19680606 000000      0  19680608 000000
   19680606 000000      0  19680608 000000
$
  'the_end'  0
$
  'STP'
$
$ End of input file
