
                  *** WAVEWATCH III  Initial conditions ***   
               ===============================================

  Comment character is '$'

  Grid name : 1-D parameterized ice test    


  Initial field ITYPE = 2
 --------------------------------------------------
  Negative SIX was provided by user.         
  WW3 will create a gaussian distribution    
  that is circular in real space. 
       JONSWAP spectrum

       alfa                      (-) :      0.00810
       Peak frequecy            (Hz) :      0.1000
       Mean direction   (Naut.,deg.) :    270.0
       gamma                     (-) :      1.00
       sigma-A                   (-) :      0.0700
       sigma-B                   (-) :      0.0900
       Mean X and spread        (km) :      0.00     0.01
       Mean Y and spread        (km) :      0.00     5.00

  Location : TEST 1-D
  Spectrum : E(f)  Extreme value :  0.142E+02  

           +---------------------------------------------------+
 0.148E+02 +                                                   |
           |                   * *                             |
 0.130E+02 +                                                   |
           |                 *                                 |
 0.113E+02 +                       *                           |
           |                                                   |
 0.955E+01 +                                                   |
           |                         *                         |
 0.781E+01 +               *                                   |
           |                                                   |
 0.608E+01 +                           *                       |
           |                                                   |
 0.434E+01 +                             *                     |
           |                                                   |
 0.260E+01 +             *                 *                   |
           |                                 *                 |
 0.868E+00 +           *                       * * *           |
           +-*-*-*-*-*-|-------|-------|-------|-----*-*-*-*-*-+
             0.045   0.066   0.097   0.142   0.208   0.305
 

  Location : TEST 2-D
  Spectrum : E(f,theta) (Normalized)   Maximum value : .120E+02 m2s

       ang.|  frequencies (Hz) 
       deg.| 0.045   0.066   0.097   0.142   0.208   0.305
       ----+---|-------|-------|-------|-------|-------|-------+
         N |           0 0 0 0 0 0 0 0 0 0 0 0 0 0 0 0 0 0     |
           |           0 0 0 0       0 0 0 0 0 0 0 0 0 0 0     |
           |           0 0 0             0 0 0 0 0 0 0 0       |
        NE |                                 0 0 0 0           |
           |                                                   |
           |                                                   |
         E |                                                   |
           |                                                   |
           |                                                   |
        SE |                                 0 0 0 0           |
           |           0 0 0             0 0 0 0 0 0 0 0       |
           |           0 0 0 0       0 0 0 0 0 0 0 0 0 0 0     |
         S |           0 0 0 0 0 0 0 0 0 0 0 0 0 0 0 0 0 0     |
           |           0 0 0 0 0 0 0 0 0 0 0 0 0 0 0 0 0 0 0   |
           |           0 0 1 1 0 0 1 1 0 0 0 0 0 0 0 0 0 0 0   |
        SW |         0 0 0 1 2 2 2 2 2 1 1 0 0 0 0 0 0 0 0 0 0 |
           |         0 0 0 2 4 5 5 4 3 2 1 0 0 0 0 0 0 0 0 0 0 |
           |         0 0 1 3 6 8 8 6 4 2 1 1 0 0 0 0 0 0 0 0 0 |
         W |         0 0 1 3 6 * 9 7 4 3 1 1 0 0 0 0 0 0 0 0 0 |
           |         0 0 1 3 6 8 8 6 4 2 1 1 0 0 0 0 0 0 0 0 0 |
           |         0 0 0 2 4 5 5 4 3 2 1 0 0 0 0 0 0 0 0 0 0 |
        NW |         0 0 0 1 2 2 2 2 2 1 1 0 0 0 0 0 0 0 0 0 0 |
           |           0 0 1 1 0 0 1 1 0 0 0 0 0 0 0 0 0 0 0   |
           |           0 0 0 0 0 0 0 0 0 0 0 0 0 0 0 0 0 0 0   |
       ----+---------------------------------------------------+
 

       Converting energy to action ... 

 Variable: Hs Max.:  0.400E+01 m
 
             1      11      21      31      41      51      61      71      81      91     101     111     121     131     141     151
       +-----------------------------------------------------------------+
     3 |                                                                 |
       |   8 4 1 0 0 0 0 0 0 0 0 0 0 0 0 0 0 0 0 0 0 0 0 0 0 0 0 0 0 0   |
       |                                                                 |
       +-----------------------------------------------------------------+
             1      11      21      31      41      51      61      71      81      91     101     111     121     131     141     151
 

       Writing restart file  ... 


  End of program 
 =========================================
         WAVEWATCH III Initial conditions 

