!/ =================================================================== /
!/ Define the ENABLE_WW3 macro when compiling within Wavewatch III.
!/
!/ When compiling outside of Wavewatch III the ENABLE_WW3 must be
!/ undefined and the ENABLE_MPI macro must be defined if compiling
!/ with MPI.
!/ =================================================================== /
#define ENABLE_WW3




#ifdef ENABLE_WW3
#include "w3macros.h"
#endif
!/ =================================================================== /
      MODULE W3GSRUMD
!/
!/                  +-----------------------------------+
!/                  | WAVEWATCH III           NOAA/NCEP |
!/                  |        T. J. Campbell, NRL        |
!/                  |                        FORTRAN 90 |
!/                  | Last update :         25-Jan-2017 |
!/                  +-----------------------------------+
!/
!/    30-Oct-2009 : Origination.                        ( version 3.14 )
!/    14-Jun-2010 : Fix for ACOS argument > 1 in W3DIST ( version 3.14 )
!/    12-Nov-2010 : Change T_NNS, W3NN*, W3SORT, W3ISRT to public.
!/                  Add W3GFIJ (public). Implement r4 & r8 interfaces.
!/                  Add subcell check for grid cell that includes a pole.
!/                  Change to number of search buckets based on
!/                  dimensions of input grid.           ( version 3.14 )
!/    01-Dec-2010 : Assign cells to buckets based on overlap. The
!/                  nearest-neighbor bucket search is removed (no longer
!/                  needed). Add support for tripole grids (JCLO).
!/                  Add W3GFCD (public). Some cleanup. Add ouput of
!/                  approximate memory usage.           ( version 3.14 )
!/    01-Dec-2010 : Add check for target point coincident with a cell
!/                  vertex in W3RMBL.  Change to error exit when unable
!/                  to determine local (i,j).           ( version 3.14 )
!/    06-Dec-2010 : Remove restriction on longitude range. Change ICLO
!/                  to integer and remove JCLO. Implement support for
!/                  r4 and r8 source grids.             ( version 3.14 )
!/    15-Jun-2012 : Fixed various format statements that gave compile
!/                  warnings with Intel compiler on NCEP R&D machine
!/                  zeus (H. L. Tolman)                 ( version 4.07 )
!/    20-Jan-2017 : Moved all record of changes from subroutines to
!/                  the top of the module and consolidate source code
!/                  for procedure interfaces            ( version 6.02 )
!/    20-Jan-2017 : Generalize index bounds for source  ( version 6.02 )
!/    20-Jan-2017 : Fix tripole grid index mapping and implement
!/                  additional index closure types.     ( version 6.02 )
!/    20-Jan-2017 : Add small non-zero tolerance to bounding box checks,
!/                  point coincidence checks and checks for points that
!/                  lie exactly on a cell side          ( version 6.02 )
!/    20-Jan-2017 : Add option to W3GFCL, W3GRMP, W3GFPT, and W3GFIJ to
!/                  allow target outside of source grid ( version 6.02 )
!/    20-Jan-2017 : Implement more accurate sin(d/2) equation in W3DIST
!/                  for computing angular distance      ( version 6.02 )
!/    20-Jan-2017 : Implement stereographic projection for remapping
!/                  from cells near a pole              ( version 6.02 )
!/    20-Jan-2017 : Add routine for computing metric and derivatives
!/                  for a curvilinear grid and routines for computing
!/                  gradient and divergence of fields defined on a
!/                  curvilinear grid                    ( version 6.02 )
!/    20-Jan-2017 : Add routine for computing computing bounding box
!/                  for a curvilinear grid              ( version 6.02 )
!/    20-Jan-2017 : Add W3GRMC as generic routine for computing
!/                  remapping coefficients              ( version 6.02 )
!/    25-Jan-2017 : Fix index offsets for MASK in W3GRMP and W3GRMC.
!/                  Change redist to nearpt in W3GRMC.  ( version 6.03 )
!/    31-Oct-2017 : Add optional MASK input for W3CGDM. ( version 6.03 )
!/    18-Jul-2018 : Add fall back to NFD = 2 in W3CGDM for metric
!/                  calculations where GSQRL < 0.       ( version 6.05 )
!/
!  1. Purpose :
!
!     Search, regrid, and miscellaneous utilities (data structures and
!     associated methods) for logically rectangular grids.
!
!     The grid-search-utility (GSU) object can be used for rapid searching
!     of the associated grid to identify a grid cell that encloses a target
!     point and to compute interpolation weights.  The GSU object maintains
!     internal pointers to the associated grid coordinate arrays.  Rapid
!     searching is done using a bucket search algorithm.  The search buckets
!     are based on the bounding box for the associated grid and an optional
!     user defined approximate number of grid cells per search bucket.
!
!     Grid cells are identified by the cell's lower-left corner grid point.
!     The vertices (grid points) associated with a grid cell are assigned a
!     sequential index in a counterclockwise order beginning with the cell's
!     lower-left corner grid point.  That is, when moving from vertex 1 to
!     vertex 2 to vertex 3, etc., the grid cell interior is always to the left.
!     Note that though cell will be counterclockwise w.r.t. indices, this does 
!     not necessarily mean that the cell will be counterclockwise geographically,
!     specifically in situation of curvilinear grid.
!
!                  (x4,y4)               (x3,y3)
!                      _____________________
!                     /                    /
!                    /                    /
!                   /                    /
!                  /                    /
!                 /____________________/
!             (x1,y1)              (x2,y2)
!
!
!     A simple interpolation example:
!
!          -----------------------------------------------------------
!          ! Define data
!          TYPE(T_GSU) :: GSU
!          LOGICAL :: IJG  = .TRUE.
!          LOGICAL :: LLG  = .TRUE.
!          LOGICAL :: ICLO = ICLO_NONE
!          REAL, POINTER :: XS(:,:), YS(:,:)  !source grid coordinates
!          REAL :: FS(:,:)                    !source field
!          INTEGER :: NT                      !number of target points
!          REAL :: XT(NT), YT(NT), FT(NT)     !target coordinates and field
!          INTEGER :: IS(4), JS(4)            !interpolation points
!          REAL :: RW(4)                      !interpolation weights
!
!          ! Setup source grid and field and target points
!          < ... >
!
!          ! Create grid-search-utility object for source grid
!          GSU = W3GSUC( IJG, LLG, ICLO, XS, YS )
!
!          ! Interpolate source field to target points
!          DO K=1,NT
!            FT(K) = 0
!            IF ( W3GRMP( GSU, XT(K), YT(K), IS, JS, RW ) ) THEN
!                DO L=1,4
!                  FT(K) = FT(K) + RW(L)*FS(IS(L),JS(L))
!                  END DO
!              END IF
!            END DO
!
!          ! Destroy grid-search-utility object
!          CALL W3GSUD( GSU )
!          -----------------------------------------------------------
!
!  2. Variables and types :
!
!     All module variables and types are scoped private by default.
!     The private module variables and types are not listed in this section.
!
!      Name      Type  Scope    Description
!     ----------------------------------------------------------------
!      MSKC_NONE I.P.  Public   Named constant identifying a non-masked
!                               enclosing grid cell
!      MSKC_PART I.P.  Public   Named constant identifying a partially
!                               masked enclosing grid cell
!      MSKC_FULL I.P.  Public   Named constant identifying a fully
!                               masked enclosing grid cell
!      ICLO_NONE I.P.  Public   Named constant identifying a grid with
!                               no closure in index space
!      ICLO_SMPL I.P.  Public   Synonym for ICLO_GRDI
!      ICLO_GRDI I.P.  Public   Named constant identifying a grid with
!                               closure in I-index: (UBX+1, j) => (LBX, j)
!      ICLO_GRDJ I.P.  Public   Named constant identifying a grid with
!                               closure in J-index: (i, UBY+1) => (i, LBY)
!      ICLO_TRDL I.P.  Public   Named constant identifying a grid with
!                               toroidal closure: (UBX+1, j) => (LBX, j) and
!                                                 (i, UBY+1) => (i, LBY)
!      ICLO_TRPL I.P.  Public   Named constant identifying a grid with
!                               tripole closure: (UBX+1, LBY<=j<=UBY) => (LBX, j)
!                               and (LBX<=i<=UBX, UBY+1) => (UBX+LBX-i, UBY)
!      T_GSU     TYPE  Public   Grid-search-utility type (opaque)
!      T_NNS     TYPE  Public   Nearest-neighbor grid-point search type
!     ----------------------------------------------------------------
!
!  3. Subroutines and functions :
!
!     All module subroutines and functions are scoped private by default.
!
!      Name      Type  Scope    Description
!     ----------------------------------------------------------------
!      W3GSUC    Func. Public   Create grid-search-utility object.
!      W3GSUD    Subr. Public   Destroy grid-search-utility object.
!      W3GSUP    Subr. Public   Print grid-search-utility object to stdout.
!      W3BBOX    Subr. Public   Get bounding box associated with grid.
!      W3GFCL    Func. Public   Find grid cell that encloses target point (bucket search).
!      W3GFCD    Func. Public   Find grid cell that encloses target point (direct search).
!      W3GFPT    Func. Public   Find grid point that is closest to target point.
!      W3GFIJ    Func. Public   Compute coord of target point in source grid index space
!      W3GRMP    Func. Public   Compute bilinear interpolation coeff. from grid.
!      W3GRMC    Func. Public   Compute remapping coeff. from grid.
!      W3CKCL    Func. Public   Check if point lies within grid cell.
!      W3CGDM    Func. Public   Compute curvilinear grid derivatives and metric
!      W3GRD0    Func. Public   Compute gradient of scalar field
!      W3DIV1    Func. Public   Compute divergence of a vector field
!      W3DIV2    Func. Public   Compute divergence of a tensor field
!      W3DIST    Func. Public   Compute distance between two points.
!      W3SPLX    Func. Public   Compute Cartesian coord using stereographic projection
!      W3SPXL    Func. Public   Compute (lon,lat) coord using stereographic projection
!      W3TRLL    Func. Public   Compute (lon,lat) in rotated coordinate system
!      W3LLAZ    Func. Public   Compute azimuth for pair of (lon,lat) points
!      W3FDWT    Func. Public   Compute finite-difference weights.
!      W3NNSC    Func. Public   Create nearest-neighbor-search object.
!      W3NNSD    Subr. Public   Destroy nearest-neighbor-search object.
!      W3NNSP    Subr. Public   Print nearest-neighbor-search object to stdout.
!      W3SORT    Subr. Public   Sort input arrays in increasing order.
!      W3ISRT    Subr. Public   Insert data into array.
!      W3INAN    Func. Public   Check if input is infinite or NaN.
!     ----------------------------------------------------------------
!
!  4. Subroutines and functions used :
!
!      Name      Type  Module   Description
!     ----------------------------------------------------------------
!      STRACE    Subr. W3SERVMD Subroutine tracing.
!      EXTCDE    Subr. W3SERVMD Abort program with exit code.
!     ----------------------------------------------------------------
!
!  5. Remarks :
!
!     - The GSU object is an "opaque" object.  This means that the
!       internals of the object are not accessible outside this module.
!     - The burden is upon the user to invoke the destroy method when
!       finished with a GSU object.  If created GSU objects are
!       not properly destroyed, then memory leaks may be introduced.
!
!  6. Switches :
!
!     !/S    Enable subroutine tracing.
!
!  7. Source code :
!
!/ =================================================================== /
!/
!/ Use associated modules
!/
#ifdef ENABLE_WW3
      USE W3SERVMD, ONLY: EXTCDE
#endif
!/S      USE W3SERVMD, ONLY: STRACE
!/
!/ Specify default data typing
!/
      IMPLICIT NONE
!/
!/ Specify default accessibility
!/
      PRIVATE
!/
!/ Public module methods
!/
      PUBLIC W3GSUC
      PUBLIC W3GSUD
      PUBLIC W3GSUP
      PUBLIC W3BBOX
      PUBLIC W3GFCL
      PUBLIC W3GFCD
      PUBLIC W3GFPT
      PUBLIC W3GFIJ
      PUBLIC W3GRMP
      PUBLIC W3GRMC
      PUBLIC W3CKCL
      PUBLIC W3CGDM
      PUBLIC W3GRD0
      PUBLIC W3DIV1
      PUBLIC W3DIV2
      PUBLIC W3DIST
      PUBLIC W3SPLX
      PUBLIC W3SPXL
      PUBLIC W3TRLL
      PUBLIC W3LLAZ
      PUBLIC W3FDWT
      PUBLIC W3NNSC
      PUBLIC W3NNSD
      PUBLIC W3NNSP
      PUBLIC W3SORT
      PUBLIC W3ISRT
      PUBLIC W3INAN
!/
!/ Public return codes
!/
      INTEGER, PARAMETER, PUBLIC :: MSKC_NONE = 0
      INTEGER, PARAMETER, PUBLIC :: MSKC_PART = 1
      INTEGER, PARAMETER, PUBLIC :: MSKC_FULL = 2
!/
!/ Public index closure types (for lat/lon grids only)
!/   ICLO_NONE : no closure in index space
!/   ICLO_SMPL : synonym for ICLO_GRDI
!/   ICLO_GRDI : closure in i-index at i=UBX+1: (UBX+1, j) => (LBX, j)
!/   ICLO_GRDJ : closure in j-index at j=UBY+1: (i, UBY+1) => (i, LBY)
!/   ICLO_TRDL : toroidal grid closure: (UBX+1, j) => (LBX, j) and
!/                                      (i, UBY+1) => (i, LBY)
!/   ICLO_TRPL : tripole grid closure: (UBX+1, LBY<=j<=UBY) => (LBX, j) and
!/                                     (LBX<=i<=UBX, UBY+1) => (UBX+LBX-i, UBY)
!/
!/   Note that simple i-index closure types are set to multiples of 2.
!/   Note that simple j-index closure types are set to multiples of 3.
!/   These settings are used in the GSU methods to simplify checking.
!/
!/   Implementation notes on index closure:
!/   Simple closure in i-index means that a given integer i' is mapped to the
!/   range [LBX,UBX].  When i' >= LBX, the function i = LBX + MOD(i'-LBX,NX)
!/   maps i' to i in [LBX,UBX] (where, NX = UBX - LBX + 1).  The function
!/   i = UBX + MOD(i'-LBX+1,NX) maps any integer i' to i in [LBX,INF).  Hence,
!/   the following composition is used to map any integer i' to [LBX,UBX].
!/           i = LBX + MOD(NX - 1 + MOD(i' - LBX + 1, NX), NX)
!/   Similarly, for simple closure in j-index, the following composition is used
!/   to map any integer j' to [LBY,UBY].
!/           j = LBY + MOD(NY - 1 + MOD(j' - LBY + 1, NY), NY)
!/   For tripole type index closure, the simple closure in i-index is appied
!/   prior to computing the appropriate i and j-index mapping for closure across
!/   the seam at j = UBY.  The j-index closure for i' in [LBX,UBX] and j' > UBY
!/   is computed as i = UBX + LBX - i' and j = 2*UBY - j' + 1.
!/
      INTEGER, PARAMETER, PUBLIC :: ICLO_NONE = -1
      INTEGER, PARAMETER, PUBLIC :: ICLO_SMPL =  2
      INTEGER, PARAMETER, PUBLIC :: ICLO_GRDI =  ICLO_SMPL
      INTEGER, PARAMETER, PUBLIC :: ICLO_GRDJ =  3
      INTEGER, PARAMETER, PUBLIC :: ICLO_TRDL =  6
      INTEGER, PARAMETER, PUBLIC :: ICLO_TRPL =  8
!/
!/ Public grid-search-utility type
!/ This is an opaque type -- that is, it's internals are private and only
!/ accessible to subroutines in this module where the type is declared.
!/
      TYPE, PUBLIC :: T_GSU
        PRIVATE
        TYPE(CLASS_GSU), POINTER :: PTR => NULL()
      END TYPE T_GSU
!/
!/ Private grid-search-utility class
!/
      TYPE :: CLASS_GSU
        LOGICAL :: IJG  ! grid array ordering flag: T = (NX,NY), F = (NY,NX)
        LOGICAL :: LLG  ! spherical coordinate flag of associated grid
        INTEGER :: ICLO ! parameter indicating type of index space closure
                        ! this flag must be set by the user
        LOGICAL :: LCLO ! flag indicating longitudinal periodicity
                        ! this flag is calculated internally
                        ! LLG & ICLO != ICLO_NONE => LCLO = T
        LOGICAL :: L360 ! flag indicating longitude range:
                        !   T = [0:360],  F = [-180:180]
        INTEGER :: GKIND  ! kind (precision: 4 or 8) of associated grid
        INTEGER :: LBX, LBY ! lower-bounds of associated grid
        INTEGER :: UBX, UBY ! upper-bounds of associated grid
        INTEGER :: NX, NY   ! dimensions of associated grid
        REAL(4), POINTER :: XG4(:,:), YG4(:,:) ! coordinates of associated grid (r4)
        REAL(8), POINTER :: XG8(:,:), YG8(:,:) ! coordinates of associated grid (r8)
        TYPE(T_NNS), POINTER :: NNP  ! nearest-neighbor point search indices object
        INTEGER :: NBX, NBY  ! number of buckets in each spatial direction
        REAL(8) :: DXB, DYB  ! spatial extent of each search bucket
        REAL(8) :: XMIN, YMIN, XMAX, YMAX ! bounding box of search domain
        TYPE(T_BKT), POINTER :: B(:,:) ! array of search buckets
        TYPE(T_NNS), POINTER :: NNB  ! nearest-neighbor bucket search indices object
      END TYPE CLASS_GSU
!/
!/ Private search bucket type
!/
      TYPE :: T_BKT
        INTEGER :: N  ! number of cells in bucket
        INTEGER, POINTER :: I(:)  ! i-index of cell c
        INTEGER, POINTER :: J(:)  ! j-index of cell c
      END TYPE T_BKT
!/
!/ Public nearest-neighbor grid-point search type
!/
      TYPE, PUBLIC :: T_NNS
        INTEGER :: NLVL  ! number of nnbr levels
        INTEGER :: NNBR  ! total number of nnbr's
        INTEGER, POINTER :: N1(:)  ! starting nearest-nbr loop index for level l
        INTEGER, POINTER :: N2(:)  ! ending nearest-nbr loop index for level l
        INTEGER, POINTER :: DI(:)  ! i-index delta for nearest-nbr n
        INTEGER, POINTER :: DJ(:)  ! j-index delta for nearest-nbr n
      END TYPE T_NNS
!/
!/ Private module parameters
!/
      REAL(8), PARAMETER :: PI = 3.14159265358979323846D0
      REAL(8), PARAMETER :: PI2 = 2D0*PI
      REAL(8), PARAMETER :: PI3H = 3D0*PI/2D0
      REAL(8), PARAMETER :: PIO2 = PI/2D0
      REAL(8), PARAMETER :: PIO4 = PI/4D0
      REAL(8), PARAMETER :: D2R = PI/180D0
      REAL(8), PARAMETER :: R2D = 1D0/D2R
      REAL(8), PARAMETER :: D360 = 360D0
      REAL(8), PARAMETER :: D270 = 270D0
      REAL(8), PARAMETER :: D180 = 180D0
      REAL(8), PARAMETER :: D90  =  90D0
      REAL(8), PARAMETER :: ZERO = 0.0D0
      REAL(8), PARAMETER :: HALF = 0.5D0
      REAL(8), PARAMETER :: ONE  = 1.0D0
      REAL(8), PARAMETER :: TWO  = 2.0D0
      REAL(8), PARAMETER :: FOUR = 4.0D0
#if defined(COAMPS)
      REAL(8), PARAMETER :: REARTH = 6371229.D0
#else
      REAL(8), PARAMETER :: REARTH = 4.D7/PI2 !this gives D2M = 111111.111111
#endif
      REAL(8), PARAMETER :: D2M  = REARTH*D2R
      REAL(8), PARAMETER :: M2D  = 1D0/D2M
!     Default small non-zero tolerance used to check if
!     target point is in domain and for point coincidence.
      REAL(8), PARAMETER :: EPS_DEFAULT  = 1.0D-6
!     Distance (deg) from pole to consider a cell "near the pole"
      REAL(8), PARAMETER :: NEAR_POLE = 10.0D0
!     Default number of grid cells (in each direction) per search bucket.
      INTEGER, PARAMETER :: NCB_DEFAULT = 10
!     Default maximum number of nearest-neighbor grid point search levels.
      INTEGER, PARAMETER :: NNP_DEFAULT = 2
!     Max number of non-empty levels for bucket search when target point
!     is outside source domain
      INTEGER, PARAMETER :: MAX_FNCL_LEVEL = 3
!     Default finite-difference order
      INTEGER, PARAMETER :: NFD_DEFAULT = 4
!/
!/ Module Interfaces
!/
      INTERFACE W3GSUC
        MODULE PROCEDURE W3GSUC_PTR_R4
        MODULE PROCEDURE W3GSUC_PTR_R8
        MODULE PROCEDURE W3GSUC_TGT_R4
        MODULE PROCEDURE W3GSUC_TGT_R8
      END INTERFACE W3GSUC
      INTERFACE W3BBOX
        MODULE PROCEDURE W3BBOX_GSU
        MODULE PROCEDURE W3BBOX_GRD_PTR_R4
        MODULE PROCEDURE W3BBOX_GRD_PTR_R8
        MODULE PROCEDURE W3BBOX_GRD_TGT_R4
        MODULE PROCEDURE W3BBOX_GRD_TGT_R8
      END INTERFACE W3BBOX
      INTERFACE W3GFCL
        MODULE PROCEDURE W3GFCL_R4
        MODULE PROCEDURE W3GFCL_R8
      END INTERFACE W3GFCL
      INTERFACE W3GFCD
        MODULE PROCEDURE W3GFCD_R4
        MODULE PROCEDURE W3GFCD_R8
      END INTERFACE W3GFCD
      INTERFACE W3GFPT
        MODULE PROCEDURE W3GFPT_R4
        MODULE PROCEDURE W3GFPT_R8
      END INTERFACE W3GFPT
      INTERFACE W3GFIJ
        MODULE PROCEDURE W3GFIJ_R4
        MODULE PROCEDURE W3GFIJ_R8
      END INTERFACE W3GFIJ
      INTERFACE W3GRMP
        MODULE PROCEDURE W3GRMP_R4
        MODULE PROCEDURE W3GRMP_R8
      END INTERFACE W3GRMP
      INTERFACE W3GRMC
        MODULE PROCEDURE W3GRMC_R4
        MODULE PROCEDURE W3GRMC_R8
      END INTERFACE W3GRMC
      INTERFACE W3CGDM
        MODULE PROCEDURE W3CGDM_R4
        MODULE PROCEDURE W3CGDM_R8
      END INTERFACE W3CGDM
      INTERFACE W3GRD0
        MODULE PROCEDURE W3GRD0_R4
        MODULE PROCEDURE W3GRD0_R8
      END INTERFACE W3GRD0
      INTERFACE W3DIV1
        MODULE PROCEDURE W3DIV1_R4
        MODULE PROCEDURE W3DIV1_R8
      END INTERFACE W3DIV1
      INTERFACE W3DIV2
        MODULE PROCEDURE W3DIV2_R4
        MODULE PROCEDURE W3DIV2_R8
      END INTERFACE W3DIV2
      INTERFACE W3DIST
        MODULE PROCEDURE W3DIST_R4
        MODULE PROCEDURE W3DIST_R8
      END INTERFACE W3DIST
      INTERFACE W3SPLX
        MODULE PROCEDURE W3SPLX_0D_R4
        MODULE PROCEDURE W3SPLX_0D_R8
        MODULE PROCEDURE W3SPLX_1D_R4
        MODULE PROCEDURE W3SPLX_1D_R8
        MODULE PROCEDURE W3SPLX_2D_R4
        MODULE PROCEDURE W3SPLX_2D_R8
      END INTERFACE W3SPLX
      INTERFACE W3SPXL
        MODULE PROCEDURE W3SPXL_0D_R4
        MODULE PROCEDURE W3SPXL_0D_R8
        MODULE PROCEDURE W3SPXL_1D_R4
        MODULE PROCEDURE W3SPXL_1D_R8
        MODULE PROCEDURE W3SPXL_2D_R4
        MODULE PROCEDURE W3SPXL_2D_R8
      END INTERFACE W3SPXL
      INTERFACE W3TRLL
        MODULE PROCEDURE W3TRLL_0D_R4
        MODULE PROCEDURE W3TRLL_0D_R8
        MODULE PROCEDURE W3TRLL_1D_R4
        MODULE PROCEDURE W3TRLL_1D_R8
        MODULE PROCEDURE W3TRLL_2D_R4
        MODULE PROCEDURE W3TRLL_2D_R8
      END INTERFACE W3TRLL
      INTERFACE W3LLAZ
        MODULE PROCEDURE W3LLAZ_R4
        MODULE PROCEDURE W3LLAZ_R8
      END INTERFACE W3LLAZ
      INTERFACE W3FDWT
        MODULE PROCEDURE W3FDWT_R4
        MODULE PROCEDURE W3FDWT_R8
      END INTERFACE W3FDWT
      INTERFACE W3CKCL
        MODULE PROCEDURE W3CKCL_R4
        MODULE PROCEDURE W3CKCL_R8
      END INTERFACE W3CKCL
      INTERFACE W3SORT
        MODULE PROCEDURE W3SORT_R4
        MODULE PROCEDURE W3SORT_R8
      END INTERFACE W3SORT
      INTERFACE W3ISRT
        MODULE PROCEDURE W3ISRT_R4
        MODULE PROCEDURE W3ISRT_R8
      END INTERFACE W3ISRT
      INTERFACE W3INAN
        MODULE PROCEDURE W3INAN_R4
        MODULE PROCEDURE W3INAN_R8
      END INTERFACE W3INAN

!/
      CONTAINS
!/
!/ =================================================================== /
!/








!/
!/ =================================================================== /
!/
!/    FUNCTION W3GSUC( IJG, LLG, ICLO, XG, YG, &
!/                     NCB, NNP, DEBUG ) RESULT(GSU)
!/      OR
!/    FUNCTION W3GSUC( IJG, LLG, ICLO, LB, UB, XG, YG, &
!/                     NCB, NNP, DEBUG ) RESULT(GSU)
!/
!/ =================================================================== /
!/
!  1. Purpose :
!
!     Create grid-search-utility (GSU) object for a logically rectangular
!     grid defined by the input coordinates.
!
!  2. Method :
!
!  3. Parameters :
!
!     Return parameter
!     ----------------------------------------------------------------
!       GSU     Type   O   Created grid-search-utility object.
!     ----------------------------------------------------------------
!
!     Parameter list
!     ----------------------------------------------------------------
!       IJG     Log.   I   Logical flag indicating ordering of input
!                          coord. arrays: T = (NX,NY) and F = (NY,NX).
!       LLG     Log.   I   Logical flag indicating the coordinate system:
!                          T = spherical lat/lon (degrees) and F = Cartesian.
!       ICLO    Int.   I   Parameter indicating type of index space closure
!
!     Inputs (for W3GSUC_PTR):
!       XG      R.A.   I   Pointer to array of x-coordinates of input grid.
!       YG      R.A.   I   Pointer to array of y-coordinates of input grid.
!
!     Inputs (for W3GSUC_TGT):
!       LB      I.A.   I   Lower bounds of XG and YG arrays
!       UB      I.A.   I   Upper bounds of XG and YG arrays
!       XG      R.A.   I   Array of x-coordinates of input grid.
!       YG      R.A.   I   Array of y-coordinates of input grid.
!
!       NCB     Int.   I   OPTIONAL (approximate) number of cells (in each
!                          direction) per search bucket. (default is NCB_DEFAULT)
!                          NCB >= 1 is required.  NCB = 1 gives most efficient
!                          searching, but uses more memory. Increasing NCB leads
!                          to fewer buckets (less memory) but slower searching.
!       NNP     Int.   I   OPTIONAL maximum number of nearest-neighbor grid
!                          point search levels. (default is NNP_DEFAULT)
!       DEBUG   Log.   I   OPTIONAL logical flag to turn on debug mode.
!                          Default is FALSE.
!     ----------------------------------------------------------------
!
!  4. Subroutines used :
!
!     See module documentation.
!
!  5. Called by :
!
!  6. Error messages :
!
!     - Check on correct coordinate system with global grid.
!     - Check on association of input grid coordinate array pointers.
!
!  7. Remarks :
!
!     - LCLO is calculated internally.
!     - LLG & ICLO != ICLO_NONE => LCLO = T.
!     - Periodic Cartesian grids are not allowed.
!
!  8. Structure :
!
!     -----------------------------------------------------------------
!      1.  Test input
!      2.  Allocate object and set grid related data and pointers
!      3.  Create nearest-neighbor point search object
!      4.  Construct bucket search "object"
!      5.  Set return parameter
!     -----------------------------------------------------------------
!
!  9. Switches :
!
!     !/S    Enable subroutine tracing.
!
! 10. Source code :
!/
!/ ------------------------------------------------------------------- /
!/
      FUNCTION W3GSUC_PTR_R4( IJG, LLG, ICLO, XG, YG, &
                              NCB, NNP, DEBUG ) RESULT(GSU)
!     Single precision pointer interface
      TYPE(T_GSU)         :: GSU
      LOGICAL, INTENT(IN) :: IJG
      LOGICAL, INTENT(IN) :: LLG
      INTEGER, INTENT(IN) :: ICLO
      REAL(4), POINTER    :: XG(:,:)
      REAL(4), POINTER    :: YG(:,:)
      INTEGER, INTENT(IN), OPTIONAL :: NCB
      INTEGER, INTENT(IN), OPTIONAL :: NNP
      LOGICAL, INTENT(IN), OPTIONAL :: DEBUG

!     Local parameters
      INTEGER :: LB(2), UB(2)
!/S      INTEGER, SAVE           :: IENT = 0
!/S      CALL STRACE (IENT, 'W3GSUC_PTR_R4')
!
      LB(1) = LBOUND(XG,1); LB(2) = LBOUND(XG,2)
      UB(1) = UBOUND(XG,1); UB(2) = UBOUND(XG,2)
      GSU = GSU_CREATE( IJG, LLG, ICLO, LB, UB, XG4=XG, YG4=YG, &
                        NCB=NCB, NNP=NNP, DEBUG=DEBUG)

      END FUNCTION W3GSUC_PTR_R4
!/
!/ ------------------------------------------------------------------- /
!/
      FUNCTION W3GSUC_PTR_R8( IJG, LLG, ICLO, XG, YG, &
                              NCB, NNP, DEBUG ) RESULT(GSU)
!     Double precision pointer interface
      TYPE(T_GSU)         :: GSU
      LOGICAL, INTENT(IN) :: IJG
      LOGICAL, INTENT(IN) :: LLG
      INTEGER, INTENT(IN) :: ICLO
      REAL(8), POINTER    :: XG(:,:)
      REAL(8), POINTER    :: YG(:,:)
      INTEGER, INTENT(IN), OPTIONAL :: NCB
      INTEGER, INTENT(IN), OPTIONAL :: NNP
      LOGICAL, INTENT(IN), OPTIONAL :: DEBUG

!     Local parameters
      INTEGER :: LB(2), UB(2)
!/S      INTEGER, SAVE           :: IENT = 0
!/S      CALL STRACE (IENT, 'W3GSUC_PTR_R4')
!
      LB(1) = LBOUND(XG,1); LB(2) = LBOUND(XG,2)
      UB(1) = UBOUND(XG,1); UB(2) = UBOUND(XG,2)
      GSU = GSU_CREATE( IJG, LLG, ICLO, LB, UB, XG8=XG, YG8=YG, &
                        NCB=NCB, NNP=NNP, DEBUG=DEBUG)

      END FUNCTION W3GSUC_PTR_R8
!/
!/ ------------------------------------------------------------------- /
!/
      FUNCTION W3GSUC_TGT_R4( IJG, LLG, ICLO, LB, UB, XG, YG, &
                              NCB, NNP, DEBUG ) RESULT(GSU)
!     Single precision target interface
      TYPE(T_GSU)         :: GSU
      LOGICAL, INTENT(IN) :: IJG
      LOGICAL, INTENT(IN) :: LLG
      INTEGER, INTENT(IN) :: ICLO
      INTEGER, INTENT(IN) :: LB(2)
      INTEGER, INTENT(IN) :: UB(2)
      REAL(4), TARGET     :: XG(LB(1):UB(1),LB(2):UB(2))
      REAL(4), TARGET     :: YG(LB(1):UB(1),LB(2):UB(2))
      INTEGER, INTENT(IN), OPTIONAL :: NCB
      INTEGER, INTENT(IN), OPTIONAL :: NNP
      LOGICAL, INTENT(IN), OPTIONAL :: DEBUG

!     Local parameters
!/S      INTEGER, SAVE           :: IENT = 0
!/S      CALL STRACE (IENT, 'W3GSUC_TGT_R4')
!
      GSU = GSU_CREATE( IJG, LLG, ICLO, LB, UB, XG4=XG, YG4=YG, &
                        NCB=NCB, NNP=NNP, DEBUG=DEBUG)

      END FUNCTION W3GSUC_TGT_R4
!/
!/ ------------------------------------------------------------------- /
!/
      FUNCTION W3GSUC_TGT_R8( IJG, LLG, ICLO, LB, UB, XG, YG, &
                              NCB, NNP, DEBUG ) RESULT(GSU)
!     Double precision target interface
      TYPE(T_GSU)         :: GSU
      LOGICAL, INTENT(IN) :: IJG
      LOGICAL, INTENT(IN) :: LLG
      INTEGER, INTENT(IN) :: ICLO
      INTEGER, INTENT(IN) :: LB(2)
      INTEGER, INTENT(IN) :: UB(2)
      REAL(8), TARGET     :: XG(LB(1):UB(1),LB(2):UB(2))
      REAL(8), TARGET     :: YG(LB(1):UB(1),LB(2):UB(2))
      INTEGER, INTENT(IN), OPTIONAL :: NCB
      INTEGER, INTENT(IN), OPTIONAL :: NNP
      LOGICAL, INTENT(IN), OPTIONAL :: DEBUG

!     Local parameters
!/S      INTEGER, SAVE           :: IENT = 0
!/S      CALL STRACE (IENT, 'W3GSUC_TGT_R8')
!
      GSU = GSU_CREATE( IJG, LLG, ICLO, LB, UB, XG8=XG, YG8=YG, &
                        NCB=NCB, NNP=NNP, DEBUG=DEBUG)

      END FUNCTION W3GSUC_TGT_R8
!/
!/ End of W3GSUC ===================================================== /
!/








!/
!/ =================================================================== /
!/
!/    SUBROUTINE W3GSUD( GSU )
!/
!/ =================================================================== /
!/
!  1. Purpose :
!
!     Destroy grid search utility (GSU) object.
!
!  2. Method :
!
!  3. Parameters :
!
!     Parameter list
!     ----------------------------------------------------------------
!       GSU     Type   I   Grid-search-utility object.
!     ----------------------------------------------------------------
!
!  4. Subroutines used :
!
!     See module documentation.
!
!  5. Called by :
!
!  6. Error messages :
!
!     - Check on previous creation of grid-search-utility object.
!
!  7. Remarks :
!
!  8. Structure :
!
!  9. Switches :
!
!     !/S    Enable subroutine tracing.
!
! 10. Source code :
!/
!/ ------------------------------------------------------------------- /
!/
      SUBROUTINE W3GSUD( GSU )
      TYPE(T_GSU), INTENT(INOUT) :: GSU

!     Local parameters
      INTEGER :: IB, JB
!/S      INTEGER, SAVE           :: IENT = 0
!/S      CALL STRACE (IENT, 'W3GSUD')
!
      IF ( ASSOCIATED(GSU%PTR) ) THEN
!
          CALL W3NNSD(GSU%PTR%NNP)
!
          IF ( ASSOCIATED(GSU%PTR%B) ) THEN
              DO IB=1,GSU%PTR%NBX
                  DO JB=1,GSU%PTR%NBY
                      IF ( GSU%PTR%B(JB,IB)%N .GT. 0 ) THEN
                          DEALLOCATE(GSU%PTR%B(JB,IB)%I)
                          NULLIFY(GSU%PTR%B(JB,IB)%I)
                          DEALLOCATE(GSU%PTR%B(JB,IB)%J)
                          NULLIFY(GSU%PTR%B(JB,IB)%J)
                        END IF
                    END DO
                END DO
              DEALLOCATE(GSU%PTR%B)
              NULLIFY(GSU%PTR%B)
            END IF
!
          CALL W3NNSD(GSU%PTR%NNB)
!
          DEALLOCATE(GSU%PTR)
          NULLIFY(GSU%PTR)
!
        END IF

      END SUBROUTINE W3GSUD
!/
!/ End of W3GSUD ===================================================== /
!/








!/
!/ =================================================================== /
!/
!/    SUBROUTINE W3GSUP( GSU, IUNIT, LFULL )
!/
!/ =================================================================== /
!/
!  1. Purpose :
!
!     Print grid-search-utility (GSU) object to IUNIT.
!
!  2. Method :
!
!  3. Parameters :
!
!     Parameter list
!     ----------------------------------------------------------------
!       GSU     Type   I   Grid-search-utility object.
!       IUNIT   Int.   I   OPTIONAL unit for output. Default is stdout.
!       LFULL   Log.   I   OPTIONAL logical flag to turn on full-output
!                          mode.  Default is FALSE.  When full-output
!                          is enabled the search bucket cell lists and
!                          nearest-neighbor point search indices are output.
!     ----------------------------------------------------------------
!
!  4. Subroutines used :
!
!     See module documentation.
!
!  5. Called by :
!
!  6. Error messages :
!
!     - Check on previous creation of grid-search-utility object.
!
!  7. Remarks :
!
!  8. Structure :
!
!  9. Switches :
!
!     !/S    Enable subroutine tracing.
!
! 10. Source code :
!/
!/ ------------------------------------------------------------------- /
!/
      SUBROUTINE W3GSUP( GSU, IUNIT, LFULL )
      TYPE(T_GSU), INTENT(IN) :: GSU
      INTEGER, OPTIONAL, INTENT(IN) :: IUNIT
      LOGICAL, OPTIONAL, INTENT(IN) :: LFULL

!     Local parameters
      INTEGER, PARAMETER :: NBYTE_PTR=4
      INTEGER, PARAMETER :: NBYTE_INT=4
      TYPE(CLASS_GSU), POINTER :: PTR
      INTEGER :: NDST, K, IB, JB, NBYTE
!/S      INTEGER, SAVE           :: IENT = 0
!/S      CALL STRACE (IENT, 'W3GSUP')
!
! -------------------------------------------------------------------- /
! 1.  Test input
!
      IF ( .NOT.ASSOCIATED(GSU%PTR) ) THEN
          WRITE(0,'(/1A,1A/)') 'W3GSUP ERROR -- ', &
          'grid search utility object not created'
          CALL EXTCDE (1)
        END IF

      IF ( PRESENT(IUNIT) ) THEN
          NDST = IUNIT
        ELSE
          NDST = 6
        END IF

      PTR => GSU%PTR
!
! -------------------------------------------------------------------- /
! 2.  Compute approximate memory usage
!
      NBYTE = (NBYTE_INT+NBYTE_PTR*2)*SIZE(PTR%B)
      DO IB=1,PTR%NBX
      DO JB=1,PTR%NBY
          NBYTE = NBYTE + NBYTE_INT*2*PTR%B(JB,IB)%N
        END DO
        END DO
!
! -------------------------------------------------------------------- /
! 3.  Output
!
      WRITE(NDST,'(//80A)') ('-',K=1,80)
      WRITE(NDST,'(A)') 'Report on grid search utility object'
      WRITE(NDST,'( 80A)') ('-',K=1,80)
      WRITE(NDST,'(A,1L2)') 'Grid  ijg:',PTR%IJG
      WRITE(NDST,'(A,1L2)') 'Grid  llg:',PTR%LLG
      WRITE(NDST,'(A,1I2)') 'Grid iclo:',PTR%ICLO
      WRITE(NDST,'(A,1L2)') 'Grid lclo:',PTR%LCLO
      WRITE(NDST,'(A,1I2)') 'Grid precision:',PTR%GKIND
      WRITE(NDST,'(A,2I6)') 'Grid lbx,lby:',PTR%LBX,PTR%LBY
      WRITE(NDST,'(A,2I6)') 'Grid ubx,uby:',PTR%UBX,PTR%UBY
      WRITE(NDST,'(A,2I6)') 'Grid  nx, ny:',PTR%NX,PTR%NY
      IF ( PRESENT(LFULL) ) THEN
          IF ( LFULL ) THEN
              WRITE(NDST,'( 80A)') ('-',K=1,80)
              WRITE(NDST,'(A)') 'Nearest-neighbor point search indices'
              WRITE(NDST,'( 80A)') ('-',K=1,80)
              CALL W3NNSP(PTR%NNP,NDST)
            END IF
        END IF
      WRITE(NDST,'( 80A)') ('-',K=1,80)
      WRITE(NDST,'(A)') 'Bucket-search object'
      WRITE(NDST,'( 80A)') ('-',K=1,80)
      WRITE(NDST,'(A,4E24.16)') 'Spatial grid search domain: ', &
      PTR%XMIN,PTR%YMIN,PTR%XMAX,PTR%YMAX
      WRITE(NDST,'(A,2I6)') 'nbx,nby:',PTR%NBX,PTR%NBY
      WRITE(NDST,'(A,2E24.16)') 'dxb,dyb:',PTR%DXB,PTR%DYB
      WRITE(NDST,'(A,1F10.1)') 'Approximate memory usage (MB):', &
      REAL(NBYTE)/2**20
      IF ( PRESENT(LFULL) ) THEN
          IF ( LFULL ) THEN
              WRITE(NDST,'( 80A)') ('-',K=1,80)
              WRITE(NDST,'(A)') 'Search bucket bounds:'
              WRITE(NDST,'( 80A)') ('-',K=1,80)
              WRITE(NDST,'(2A4,4A24)') 'IB','JB','X1','Y1','X2','Y2'
              DO IB=1,PTR%NBX
              DO JB=1,PTR%NBY
                  WRITE(NDST,'(2I4,4E24.16)') IB,JB, &
                  PTR%XMIN+(IB-1)*PTR%DXB,PTR%YMIN+(JB-1)*PTR%DYB, &
                  PTR%XMIN+(IB  )*PTR%DXB,PTR%YMIN+(JB  )*PTR%DYB
                END DO
                END DO
              WRITE(NDST,'( 80A)') ('-',K=1,80)
              WRITE(NDST,'(A)') 'Number of cells in each search bucket:'
              WRITE(NDST,'( 80A)') ('-',K=1,80)
              DO JB=PTR%NBY,1,-1
                  WRITE(NDST,'(500I4)') (PTR%B(JB,IB)%N,IB=1,PTR%NBX)
                END DO
              WRITE(NDST,'( 80A)') ('-',K=1,80)
              WRITE(NDST,'(A)') 'Search bucket cell lists:'
              WRITE(NDST,'( 80A)') ('-',K=1,80)
              WRITE(NDST,'(3A4,A)') 'IB','JB','NC',': ( IC, JC), ...'
              DO JB=1,PTR%NBY
              DO IB=1,PTR%NBX
                  WRITE(NDST,'(3I4,A,500(A,I3,A,I3,A))') IB,JB, &
                  PTR%B(JB,IB)%N, ': ', &
                  ( '(',PTR%B(JB,IB)%I(K),',',PTR%B(JB,IB)%J(K),') ', &
                    K=1,PTR%B(JB,IB)%N )
                END DO
                END DO
              WRITE(NDST,'( 80A)') ('-',K=1,80)
              WRITE(NDST,'(A)') 'Nearest-neighbor bucket search indices'
              WRITE(NDST,'( 80A)') ('-',K=1,80)
              CALL W3NNSP(PTR%NNB,NDST)
            END IF !LFULL
        END IF !PRESENT(LFULL)
      WRITE(NDST,'( 80A)') ('-',K=1,80)
      WRITE(NDST,'( 80A)') ('-',K=1,80)

      END SUBROUTINE W3GSUP
!/
!/ End of W3GSUP ===================================================== /
!/








!/
!/ =================================================================== /
!/
!/    SUBROUTINE W3BBOX( GSU, XMIN, YMIN, XMAX, YMAX )
!/      OR
!/    SUBROUTINE W3BBOX( IJG, LLG, ICLO, XG, YG, XMIN, YMIN, XMAX, YMAX )
!/      OR
!/    SUBROUTINE W3BBOX( IJG, LLG, ICLO, LB, UB, XG, YG, XMIN, YMIN, XMAX, YMAX )
!/
!/ =================================================================== /
!/
!  1. Purpose :
!
!     Get bounding box associated with grid.
!
!  2. Method :
!
!  3. Parameters :
!
!     Parameter list
!     ----------------------------------------------------------------
!     Inputs (for W3BBOX_GSU):
!       GSU     Type   I   Grid-search-utility object
!
!     Inputs (for W3BBOX_GRD_PTR):
!       IJG     Log.   I   Logical flag indicating ordering of input
!                          coord. arrays: T = (NX,NY) and F = (NY,NX).
!       LLG     Log.   I   Logical flag indicating the coordinate system:
!                          T = spherical lat/lon (degrees) and F = Cartesian.
!       ICLO    Int.   I   Parameter indicating type of index space closure
!       XG      R.A.   I   Pointer to array of x-coordinates of input grid.
!       YG      R.A.   I   Pointer to array of y-coordinates of input grid.
!
!     Inputs (for W3BBOX_GRD_TGT):
!       IJG     Log.   I   Logical flag indicating ordering of input
!                          coord. arrays: T = (NX,NY) and F = (NY,NX).
!       LLG     Log.   I   Logical flag indicating the coordinate system:
!                          T = spherical lat/lon (degrees) and F = Cartesian.
!       ICLO    Int.   I   Parameter indicating type of index space closure
!       LB      I.A.   I   Lower bounds of XG and YG arrays
!       UB      I.A.   I   Upper bounds of XG and YG arrays
!       XG      R.A.   I   Array of x-coordinates of input grid.
!       YG      R.A.   I   Array of y-coordinates of input grid.
!
!     Outputs:
!       XMIN    Int.   O   Minimum X-coord of bounding box
!       YMIN    Int.   O   Minimum Y-coord of bounding box
!       XMAX    Int.   O   Maximum X-coord of bounding box
!       YMAX    Int.   O   Maximum Y-coord of bounding box
!     ----------------------------------------------------------------
!
!  4. Subroutines used :
!
!     See module documentation.
!
!  5. Called by :
!
!  6. Error messages :
!
!     - Check on previous creation of grid-search-utility object.
!
!  7. Remarks :
!
!  8. Structure :
!
!  9. Switches :
!
!     !/S    Enable subroutine tracing.
!
! 10. Source code :
!/
!/ ------------------------------------------------------------------- /
!/
      SUBROUTINE W3BBOX_GSU( GSU, XMIN, YMIN, XMAX, YMAX )
      TYPE(T_GSU), INTENT(IN) :: GSU
      REAL(8), INTENT(OUT)    :: XMIN, YMIN, XMAX, YMAX

!     Local parameters
!/S      INTEGER, SAVE           :: IENT = 0
!/S      CALL STRACE (IENT, 'W3BBOX_GSU')
!
! -------------------------------------------------------------------- /
! 1.  Test input
!
      IF ( .NOT.ASSOCIATED(GSU%PTR) ) THEN
          WRITE(0,'(/1A,1A/)') 'W3BBOX_GSU ERROR -- ', &
          'grid search utility object not created'
          CALL EXTCDE (1)
        END IF
!
! -------------------------------------------------------------------- /
! 2.  Set bounding box
!
      XMIN = GSU%PTR%XMIN
      YMIN = GSU%PTR%YMIN
      XMAX = GSU%PTR%XMAX
      YMAX = GSU%PTR%YMAX

      END SUBROUTINE W3BBOX_GSU
!/
!/ ------------------------------------------------------------------- /
!/
      SUBROUTINE W3BBOX_GRD_PTR_R4( IJG, LLG, ICLO, XG, YG, &
                                    XMIN, YMIN, XMAX, YMAX )
      LOGICAL, INTENT(IN)     :: IJG
      LOGICAL, INTENT(IN)     :: LLG
      INTEGER, INTENT(IN)     :: ICLO
      REAL(4), POINTER        :: XG(:,:)
      REAL(4), POINTER        :: YG(:,:)
      REAL(8), INTENT(OUT)    :: XMIN, YMIN, XMAX, YMAX

!     Local parameters
      TYPE(T_GSU) :: GSU
      INTEGER :: LB(2), UB(2)
!/S      INTEGER, SAVE           :: IENT = 0
!/S      CALL STRACE (IENT, 'W3BBOX_GRD_PTR_R4')
!
! -------------------------------------------------------------------- /
! 1.  Set bounding box
!
      LB(1) = LBOUND(XG,1); LB(2) = LBOUND(XG,2)
      UB(1) = UBOUND(XG,1); UB(2) = UBOUND(XG,2)
      GSU = GSU_CREATE( IJG, LLG, ICLO, LB, UB, XG4=XG, YG4=YG, BBOX_ONLY=.TRUE. )
      XMIN = GSU%PTR%XMIN
      YMIN = GSU%PTR%YMIN
      XMAX = GSU%PTR%XMAX
      YMAX = GSU%PTR%YMAX
      CALL W3GSUD( GSU )

      END SUBROUTINE W3BBOX_GRD_PTR_R4
!/
!/ ------------------------------------------------------------------- /
!/
      SUBROUTINE W3BBOX_GRD_PTR_R8( IJG, LLG, ICLO, XG, YG, &
                                    XMIN, YMIN, XMAX, YMAX )
      LOGICAL, INTENT(IN)     :: IJG
      LOGICAL, INTENT(IN)     :: LLG
      INTEGER, INTENT(IN)     :: ICLO
      REAL(8), POINTER        :: XG(:,:)
      REAL(8), POINTER        :: YG(:,:)
      REAL(8), INTENT(OUT)    :: XMIN, YMIN, XMAX, YMAX

!     Local parameters
      TYPE(T_GSU) :: GSU
      INTEGER :: LB(2), UB(2)
!/S      INTEGER, SAVE           :: IENT = 0
!/S      CALL STRACE (IENT, 'W3BBOX_GRD_PTR_R8')
!
! -------------------------------------------------------------------- /
! 1.  Set bounding box
!
      LB(1) = LBOUND(XG,1); LB(2) = LBOUND(XG,2)
      UB(1) = UBOUND(XG,1); UB(2) = UBOUND(XG,2)
      GSU = GSU_CREATE( IJG, LLG, ICLO, LB, UB, XG8=XG, YG8=YG, BBOX_ONLY=.TRUE. )
      XMIN = GSU%PTR%XMIN
      YMIN = GSU%PTR%YMIN
      XMAX = GSU%PTR%XMAX
      YMAX = GSU%PTR%YMAX
      CALL W3GSUD( GSU )

      END SUBROUTINE W3BBOX_GRD_PTR_R8
!/
!/ ------------------------------------------------------------------- /
!/
      SUBROUTINE W3BBOX_GRD_TGT_R4( IJG, LLG, ICLO, LB, UB, XG, YG, &
                                    XMIN, YMIN, XMAX, YMAX )
      LOGICAL, INTENT(IN)     :: IJG
      LOGICAL, INTENT(IN)     :: LLG
      INTEGER, INTENT(IN)     :: ICLO
      INTEGER, INTENT(IN)     :: LB(2), UB(2)
      REAL(4), TARGET         :: XG(LB(1):UB(1),LB(2):UB(2))
      REAL(4), TARGET         :: YG(LB(1):UB(1),LB(2):UB(2))
      REAL(8), INTENT(OUT)    :: XMIN, YMIN, XMAX, YMAX

!     Local parameters
      TYPE(T_GSU) :: GSU
!/S      INTEGER, SAVE           :: IENT = 0
!/S      CALL STRACE (IENT, 'W3BBOX_GRD_TGT_R4')
!
! -------------------------------------------------------------------- /
! 1.  Set bounding box
!
      GSU = GSU_CREATE( IJG, LLG, ICLO, LB, UB, XG4=XG, YG4=YG, BBOX_ONLY=.TRUE. )
      XMIN = GSU%PTR%XMIN
      YMIN = GSU%PTR%YMIN
      XMAX = GSU%PTR%XMAX
      YMAX = GSU%PTR%YMAX
      CALL W3GSUD( GSU )

      END SUBROUTINE W3BBOX_GRD_TGT_R4
!/
!/ ------------------------------------------------------------------- /
!/
      SUBROUTINE W3BBOX_GRD_TGT_R8( IJG, LLG, ICLO, LB, UB, XG, YG, &
                                    XMIN, YMIN, XMAX, YMAX )
      LOGICAL, INTENT(IN)     :: IJG
      LOGICAL, INTENT(IN)     :: LLG
      INTEGER, INTENT(IN)     :: ICLO
      INTEGER, INTENT(IN)     :: LB(2), UB(2)
      REAL(8), TARGET         :: XG(LB(1):UB(1),LB(2):UB(2))
      REAL(8), TARGET         :: YG(LB(1):UB(1),LB(2):UB(2))
      REAL(8), INTENT(OUT)    :: XMIN, YMIN, XMAX, YMAX

!     Local parameters
      TYPE(T_GSU) :: GSU
!/S      INTEGER, SAVE           :: IENT = 0
!/S      CALL STRACE (IENT, 'W3BBOX_GRD_TGT_R8')
!
! -------------------------------------------------------------------- /
! 1.  Set bounding box
!
      GSU = GSU_CREATE( IJG, LLG, ICLO, LB, UB, XG8=XG, YG8=YG, BBOX_ONLY=.TRUE. )
      XMIN = GSU%PTR%XMIN
      YMIN = GSU%PTR%YMIN
      XMAX = GSU%PTR%XMAX
      YMAX = GSU%PTR%YMAX
      CALL W3GSUD( GSU )

      END SUBROUTINE W3BBOX_GRD_TGT_R8
!/
!/ End of W3BBOX ===================================================== /
!/








!/
!/ =================================================================== /
!/
!/    FUNCTION W3GFCL( GSU, XT, YT, IS, JS, XS, YS, &
!/                     POLE, EPS, FNCL, DEBUG ) RESULT(INGRID)
!/
!/ =================================================================== /
!/
!  1. Purpose :
!
!     Find cell in grid, associated with the input grid-search-utility
!     object (GSU), that encloses the target point (xt,yt).
!
!  2. Method :
!
!  3. Parameters :
!
!     Return parameter
!     ----------------------------------------------------------------
!       INGRID  Log.   O   Logical flag indicating if target point lies
!                          within the source grid domain.
!     ----------------------------------------------------------------
!
!     Parameter list
!     ----------------------------------------------------------------
!       GSU     Type   I   Grid-search-utility object.
!       XT      Real   I   X-coordinate of target point.
!       YT      Real   I   Y-coordinate of target point.
!       IS,JS   I.A.   O   (I,J) indices of vertices of enclosing grid cell.
!       XS,YS   R.A.   O   (X,Y) coord. of vertices of enclosing grid cell.
!       POLE    Log.   O   OPTIONAL logical flag to indicate whether or not
!                          the enclosing grid cell includes a pole.
!       EPS     Real   I   OPTIONAL small non-zero tolerance used to check if
!                          target point is in domain and for point coincidence.
!       FNCL    Log.   I   OPTIONAL logical flag to enable finding cell that
!                          is shortest distance from target point when the
!                          target point is not located in the source grid.
!                          Default is FALSE.
!       DEBUG   Log.   I   OPTIONAL logical flag to turn on debug mode.
!                          Default is FALSE.
!     ----------------------------------------------------------------
!
!  4. Subroutines used :
!
!     See module documentation.
!
!  5. Called by :
!
!  6. Error messages :
!
!     - Check on previous creation of grid-search-utility object.
!
!  7. Remarks :
!
!     - The target point coordinates may be modified by this routine.
!     - The target point longitude will be shifted to the source grid
!       longitudinal range.
!     - If enclosing cell includes a branch cut, then the coordinates of
!       of the cell vertices AND the target point will be adjusted so
!       that the branch cut is shifted 180 degrees.
!
!  8. Structure :
!
!     -----------------------------------------------------------------
!      1.  Test input
!      2.  Initialize search
!      3.  Search for enclosing cell in central and nearest nbr buckets
!      4.  If not in grid and find nearest cell is enabled, then
!          identify cell closest to target point
!     -----------------------------------------------------------------
!
!  9. Switches :
!
!     !/S    Enable subroutine tracing.
!
! 10. Source code :
!/
!/ ------------------------------------------------------------------- /
!/
      FUNCTION W3GFCL_R4( GSU, XT, YT, IS, JS, XS, YS, &
                          POLE, EPS, FNCL, DEBUG ) RESULT(INGRID)
!     Single precision interface
      LOGICAL                 :: INGRID
      TYPE(T_GSU), INTENT(IN) :: GSU
      REAL(4), INTENT(INOUT)  :: XT
      REAL(4), INTENT(INOUT)  :: YT
      INTEGER, INTENT(INOUT)  :: IS(4), JS(4)
      REAL(4), INTENT(INOUT)  :: XS(4), YS(4)
      LOGICAL, INTENT(OUT),OPTIONAL :: POLE
      REAL(4), INTENT(IN), OPTIONAL :: EPS
      LOGICAL, INTENT(IN), OPTIONAL :: FNCL
      LOGICAL, INTENT(IN), OPTIONAL :: DEBUG

!     Local parameters
      REAL(8) :: XT8, YT8, XS8(4), YS8(4), EPS8
!/S      INTEGER, SAVE           :: IENT = 0
!/S      CALL STRACE (IENT, 'W3GFCL_R4')
!
!-----set inputs
      XT8 = XT; YT8 = YT;
      IF ( PRESENT(EPS) ) THEN
          EPS8 = EPS
        ELSE
          EPS8 = EPS_DEFAULT
        END IF
!
!-----call double precision method
      INGRID = W3GFCL( GSU, XT8, YT8, IS, JS, XS8, YS8, POLE=POLE, &
                       EPS=EPS8, FNCL=FNCL, DEBUG=DEBUG )
!
!-----set outputs
      XT = XT8; YT = YT8;
      XS = XS8; YS = YS8;

      END FUNCTION W3GFCL_R4
!/
!/ ------------------------------------------------------------------- /
!/
      FUNCTION W3GFCL_R8( GSU, XT, YT, IS, JS, XS, YS, &
                          POLE, EPS, FNCL, DEBUG ) RESULT(INGRID)
!     Double precision interface
      LOGICAL                 :: INGRID
      TYPE(T_GSU), INTENT(IN) :: GSU
      REAL(8), INTENT(INOUT)  :: XT
      REAL(8), INTENT(INOUT)  :: YT
      INTEGER, INTENT(INOUT)  :: IS(4), JS(4)
      REAL(8), INTENT(INOUT)  :: XS(4), YS(4)
      LOGICAL, INTENT(OUT),OPTIONAL :: POLE
      REAL(8), INTENT(IN), OPTIONAL :: EPS
      LOGICAL, INTENT(IN), OPTIONAL :: FNCL
      LOGICAL, INTENT(IN), OPTIONAL :: DEBUG

!     Local parameters
      REAL(8) :: LEPS
      LOGICAL :: LDBG, LPLC, LFNCL, INCELL
      INTEGER :: I, J, K, L, N, IB, JB
      LOGICAL :: IJG, LLG, LCLO, L360
      INTEGER :: ICLO, GKIND
      INTEGER :: LBX, LBY, UBX, UBY, NX, NY
      REAL(4), POINTER :: XG4(:,:), YG4(:,:)
      REAL(8), POINTER :: XG8(:,:), YG8(:,:)
      INTEGER :: NBX, NBY
      REAL(8) :: DXB, DYB, XMIN, XMAX, YMIN, YMAX
      TYPE(T_BKT), POINTER :: B(:,:)
      TYPE(T_NNS), POINTER :: NNB
      LOGICAL :: FOUND
      INTEGER :: NLEVEL, LVL, LVL1, N1, IB0, JB0, IB1, JB1, K1
      INTEGER :: IS1(4), JS1(4)
      REAL(8) :: XS1(4), YS1(4), XSM, YSM, DD, DD1
!/S      INTEGER, SAVE           :: IENT = 0
!/S      CALL STRACE (IENT, 'W3GFCL_R8')
!
! -------------------------------------------------------------------- /
! 1.  Test input
!
      IF ( .NOT.ASSOCIATED(GSU%PTR) ) THEN
          WRITE(0,'(/2A/)') 'W3GFCL_R8 ERROR -- ', &
          'grid search utility object not created'
          CALL EXTCDE (1)
        END IF
      IF ( PRESENT(EPS) ) THEN
          IF ( EPS .LT. ZERO ) THEN
              WRITE(0,'(/2A/)') 'W3GFCL_R8 ERROR -- ', &
              'EPS parameter must be >= 0'
              CALL EXTCDE (1)
            END IF
          LEPS = EPS
        ELSE
          LEPS = EPS_DEFAULT
        END IF
!
! -------------------------------------------------------------------- /
! 2.  Initialize search
!
      IF ( PRESENT(FNCL) ) THEN
          LFNCL = FNCL
        ELSE
          LFNCL = .FALSE.
        END IF
      IF ( PRESENT(DEBUG) ) THEN
          LDBG = DEBUG
        ELSE
          LDBG = .FALSE.
        END IF
!
!  Local pointers to grid search utility object data
      IJG = GSU%PTR%IJG
      LLG = GSU%PTR%LLG
      ICLO = GSU%PTR%ICLO
      LCLO = GSU%PTR%LCLO
      L360 = GSU%PTR%L360
      GKIND = GSU%PTR%GKIND
      LBX = GSU%PTR%LBX;  LBY = GSU%PTR%LBY;
      UBX = GSU%PTR%UBX;  UBY = GSU%PTR%UBY;
      NX = GSU%PTR%NX;  NY = GSU%PTR%NY;
      IF ( GKIND.EQ.4 ) THEN
          XG4 => GSU%PTR%XG4;  YG4 => GSU%PTR%YG4;
        ELSE
          XG8 => GSU%PTR%XG8;  YG8 => GSU%PTR%YG8;
        END IF
      NBX = GSU%PTR%NBX;  NBY = GSU%PTR%NBY;
      DXB = GSU%PTR%DXB;  DYB = GSU%PTR%DYB;
      XMIN = GSU%PTR%XMIN;  YMIN = GSU%PTR%YMIN;
      XMAX = GSU%PTR%XMAX;  YMAX = GSU%PTR%YMAX;
      B => GSU%PTR%B
      NNB => GSU%PTR%NNB
!
      INGRID = .FALSE.
!
!  Shift target to appropriate longitude range
      IF ( LLG ) THEN
          XT = MOD(XT,REAL(D360,8))
          IF ( LCLO .OR. L360 ) THEN
              IF ( XT.LT.ZERO ) XT = XT + D360
            ELSE
              IF ( XT.GT.D180 ) XT = XT - D360
            END IF
        END IF
      IF ( LDBG ) WRITE(*,'(/A,2E24.16)') 'W3GFCL_R8 - TARGET POINT:',XT,YT
!
!  Target point must lie within search domain
      IF ( .NOT.LFNCL ) THEN
        IF ( XT.LT.XMIN-LEPS .OR. XT.GT.XMAX+LEPS .OR. &
             YT.LT.YMIN-LEPS .OR. YT.GT.YMAX+LEPS ) THEN
            IF ( LDBG ) WRITE(*,'(A)') &
            'W3GFCL_R8 - TARGET POINT OUTSIDE SEARCH DOMAIN'
            RETURN
          END IF
        END IF
!
!  Search bucket that contains the target point.
      IB = MAX(INT((XT-XMIN)/DXB)+1,1);  IF ( .NOT.LCLO ) IB = MIN(IB,NBX);
      JB = MAX(INT((YT-YMIN)/DYB)+1,1);                   JB = MIN(JB,NBY);
!
! -------------------------------------------------------------------- /
! 3.  Search for enclosing cell in bucket
!
      IF ( LDBG ) &
      WRITE(*,'(A,3I6,4E24.16)') &
      'W3GFCL_R8 - BUCKET SEARCH:',IB,JB,B(JB,IB)%N, &
      XMIN+(IB-1)*DXB,YMIN+(JB-1)*DYB,XMIN+IB*DXB,YMIN+JB*DYB
      CELL_LOOP: DO K=1,B(JB,IB)%N
!---------setup cell corner indices
          IS(1) = B(JB,IB)%I(K)  ;  JS(1) = B(JB,IB)%J(K)  ;
          IS(2) = B(JB,IB)%I(K)+1;  JS(2) = B(JB,IB)%J(K)  ;
          IS(3) = B(JB,IB)%I(K)+1;  JS(3) = B(JB,IB)%J(K)+1;
          IS(4) = B(JB,IB)%I(K)  ;  JS(4) = B(JB,IB)%J(K)+1;
!---------setup cell corner coordinates and adjust for periodicity
          DO L=1,4
!-------------apply index closure
              IF ( MOD(ICLO,2).EQ.0 ) &
                  IS(L) = LBX + MOD(NX - 1 + MOD(IS(L) - LBX + 1, NX), NX)
              IF ( MOD(ICLO,3).EQ.0 ) &
                  JS(L) = LBY + MOD(NY - 1 + MOD(JS(L) - LBY + 1, NY), NY)
              IF ( ICLO.EQ.ICLO_TRPL .AND. JS(L).GT.UBY ) THEN
                  IS(L) = UBX + LBX - IS(L)
                  JS(L) = 2*UBY - JS(L) + 1
                END IF
!-------------copy cell vertex coordinates into local variables
              IF ( IJG ) THEN
                  IF ( GKIND.EQ.4 ) THEN
                      XS(L) = XG4(IS(L),JS(L));  YS(L) = YG4(IS(L),JS(L));
                    ELSE
                      XS(L) = XG8(IS(L),JS(L));  YS(L) = YG8(IS(L),JS(L));
                    END IF
                ELSE
                  IF ( GKIND.EQ.4 ) THEN
                      XS(L) = XG4(JS(L),IS(L));  YS(L) = YG4(JS(L),IS(L));
                    ELSE
                      XS(L) = XG8(JS(L),IS(L));  YS(L) = YG8(JS(L),IS(L));
                    END IF
                END IF
!-------------shift longitudes to same range
              IF ( LLG ) THEN
                  XS(L) = MOD(XS(L),REAL(D360,8))
                  IF ( LCLO .OR. L360 ) THEN
                      IF ( XS(L).LT.ZERO ) XS(L) = XS(L) + D360
                    ELSE
                      IF ( XS(L).GT.D180 ) XS(L) = XS(L) - D360
                    END IF
                END IF
            END DO !L
          IF ( LDBG ) &
          WRITE(*,'(A,3I6,4(/A,1I1,A,2I6,2E24.16))') &
          'W3GFCL_R8 - CHECK CELL:',IB,JB,K, &
          ('          CORNER(',L,'):',IS(L),JS(L),XS(L),YS(L),L=1,4)
!---------check if point is enclosed in cell defined by xs(1:4) & ys(1:4)
          INCELL = W3CKCL(LLG,XT,YT,4,XS,YS,LPLC,LEPS,LDBG)
          IF ( LDBG ) WRITE(*,'(A,1L2)')'W3GFCL_R8 - INCELL:',INCELL
          IF ( INCELL ) THEN
!-------------exit search
              IF ( LDBG ) &
              WRITE(*,'(A,3I6,4(2I6))') &
              'W3GFCL_R8 - ENCLOSING CELL:',IB,JB,K,(IS(L),JS(L),L=1,4)
              IF ( PRESENT(POLE) ) POLE = LPLC
              INGRID = .TRUE.
              EXIT CELL_LOOP 
            END IF !point in cell
        END DO CELL_LOOP
      IF ( INGRID ) RETURN
      IF ( .NOT.LFNCL ) RETURN
!
! -------------------------------------------------------------------- /
! 4.  If not in grid, then identify cell closest to target point
!
!-----find closest cell by searching nearest-neighbor buckets
      NLEVEL = 0
      DD1 = HUGE(XT)
      IB0 = IB;  JB0 = JB;
      IB1 = IB;  JB1 = JB;
      NNB = W3NNSC(NINT(HALF*MAX(NBX,NBY)))
      IF ( LDBG ) WRITE(*,'(A,3I6)') &
      'W3GFCL_R8 - CLOSEST CELL SEARCH:',IB0,JB0,NNB%NLVL
      LEVEL_LOOP: DO LVL=0,NNB%NLVL
          FOUND = .FALSE.
          NNBR_LOOP: DO N=NNB%N1(LVL),NNB%N2(LVL)
              IB = IB0 + NNB%DI(N);  JB = JB0 + NNB%DJ(N);
              IF ( IB.LT.1 .OR. IB.GT.NBX ) CYCLE NNBR_LOOP
              IF ( JB.LT.1 .OR. JB.GT.NBY ) CYCLE NNBR_LOOP
              IF ( LDBG ) WRITE(*,'(A,5I6)') &
              'W3GFCL_R8 - CHECK BUCKET:',LVL,N,IB,JB,B(JB,IB)%N
              CELL_LOOP2: DO K=1,B(JB,IB)%N
!-----------------setup cell corner indices
                  IS(1) = B(JB,IB)%I(K)  ;  JS(1) = B(JB,IB)%J(K)  ;
                  IS(2) = B(JB,IB)%I(K)+1;  JS(2) = B(JB,IB)%J(K)  ;
                  IS(3) = B(JB,IB)%I(K)+1;  JS(3) = B(JB,IB)%J(K)+1;
                  IS(4) = B(JB,IB)%I(K)  ;  JS(4) = B(JB,IB)%J(K)+1;
!-----------------setup cell corner coordinates and adjust for periodicity
                  DO L=1,4
!---------------------apply index closure
                      IF ( MOD(ICLO,2).EQ.0 ) &
                          IS(L) = LBX + MOD(NX - 1 + MOD(IS(L) - LBX + 1, NX), NX)
                      IF ( MOD(ICLO,3).EQ.0 ) &
                          JS(L) = LBY + MOD(NY - 1 + MOD(JS(L) - LBY + 1, NY), NY)
                      IF ( ICLO.EQ.ICLO_TRPL .AND. JS(L).GT.UBY ) THEN
                          IS(L) = UBX + LBX - IS(L)
                          JS(L) = 2*UBY - JS(L) + 1
                        END IF
!---------------------copy cell vertex coordinates into local variables
                      IF ( IJG ) THEN
                          IF ( GKIND.EQ.4 ) THEN
                              XS(L) = XG4(IS(L),JS(L));  YS(L) = YG4(IS(L),JS(L));
                            ELSE
                              XS(L) = XG8(IS(L),JS(L));  YS(L) = YG8(IS(L),JS(L));
                            END IF
                        ELSE
                          IF ( GKIND.EQ.4 ) THEN
                              XS(L) = XG4(JS(L),IS(L));  YS(L) = YG4(JS(L),IS(L));
                            ELSE
                              XS(L) = XG8(JS(L),IS(L));  YS(L) = YG8(JS(L),IS(L));
                            END IF
                        END IF
!---------------------shift longitudes to same range
                      IF ( LLG ) THEN
                          XS(L) = MOD(XS(L),REAL(D360,8))
                          IF ( LCLO .OR. L360 ) THEN
                              IF ( XS(L).LT.ZERO ) XS(L) = XS(L) + D360
                            ELSE
                              IF ( XS(L).GT.D180 ) XS(L) = XS(L) - D360
                            END IF
                        END IF
                    END DO !L
!-----------------check cell distance from target point
                  XSM = SUM(XS)/FOUR; YSM = SUM(YS)/FOUR;
                  DD = W3DIST(LLG,XT,YT,XSM,YSM)
                  IF ( LDBG ) &
                  WRITE(*,'(A,5I6,3E24.16,4(/A,1I1,A,2I6,2E24.16))') &
                  'W3GFCL_R8 - CHECK CELL:',LVL,N,IB,JB,K,XSM,YSM,DD, &
                  ('          CORNER(',L,'):',IS(L),JS(L),XS(L),YS(L),L=1,4)
                  IF (DD.LT.DD1) THEN
                      LVL1   = LVL
                      N1     = N
                      IB1    = IB
                      JB1    = JB
                      K1     = K
                      DD1    = DD
                      IS1(:) = IS(:)
                      JS1(:) = JS(:)
                      XS1(:) = XS(:)
                      YS1(:) = YS(:)
                    ENDIF
                  FOUND = .TRUE.
                END DO CELL_LOOP2
            END DO NNBR_LOOP
            IF ( FOUND ) NLEVEL = NLEVEL + 1
            IF ( NLEVEL .GE. MAX_FNCL_LEVEL ) EXIT LEVEL_LOOP
        END DO LEVEL_LOOP
!
!-----return cell that is shortest distance from target point 
      IS(:) = IS1(:)
      JS(:) = JS1(:)
      XS(:) = XS1(:)
      YS(:) = YS1(:)
      IF ( LDBG ) &
      WRITE(*,'(A,5I6,1E24.16,4(/A,1I1,A,2I6,2E24.16))') &
      'W3GFCL_R8 - CLOSEST CELL:',LVL1,N1,IB1,JB1,K1,DD1, &
      ('          CORNER(',L,'):',IS(L),JS(L),XS(L),YS(L),L=1,4)
!
!-----check if cell includes a pole or branch cut
      IF ( LLG ) THEN
          N = 0
!---------count longitudinal branch cut crossings
          DO I=1,4
              J = MOD(I,4) + 1
              IF ( ABS(XS(J)-XS(I)) .GT. D180 ) N = N + 1
            END DO
!---------single longitudinal branch cut crossing
!         or single vertex at 90 degrees => cell includes pole
          LPLC = N.EQ.1 .OR. COUNT(ABS(YS).EQ.D90).EQ.1
          IF ( LPLC .AND. LDBG ) &
          WRITE(*,'(A)') 'W3GFCL_R8 - CELL INCLUDES A POLE'
        ELSE
          LPLC = .FALSE.
        END IF
      IF ( PRESENT(POLE) ) POLE = LPLC

      END FUNCTION W3GFCL_R8
!/
!/ End of W3GFCL ===================================================== /
!/








!/
!/ =================================================================== /
!/
!/    FUNCTION W3GFCD_R4( GSU, XT, YT, IS, JS, XS, YS, POLE, EPS, DEBUG ) &
!/    RESULT(INGRID)
!/
!/ =================================================================== /
!/
!  1. Purpose :
!
!     Find cell in grid, associated with the input grid-search-utility
!     object (GSU), that encloses the target point (xt,yt), using direct
!     grid search (i.e., no bucket search).
!
!  2. Method :
!
!  3. Parameters :
!
!     Return parameter
!     ----------------------------------------------------------------
!       INGRID  Log.   O   Logical flag indicating if target point lies
!                          within the source grid domain.
!     ----------------------------------------------------------------
!
!     Parameter list
!     ----------------------------------------------------------------
!       GSU     Type   I   Grid-search-utility object.
!       XT      Real   I   X-coordinate of target point.
!       YT      Real   I   Y-coordinate of target point.
!       IS,JS   I.A.   O   (I,J) indices of vertices of enclosing grid cell.
!       XS,YS   R.A.   O   (X,Y) coord. of vertices of enclosing grid cell.
!       POLE    Log.   O   OPTIONAL logical flag to indicate whether or not
!                          the enclosing grid cell includes a pole.
!       EPS     Real   I   OPTIONAL small non-zero tolerance used to check if
!                          target point is in domain and for point coincidence.
!       DEBUG   Log.   I   OPTIONAL logical flag to turn on debug mode.
!                          Default is FALSE.
!     ----------------------------------------------------------------
!
!  4. Subroutines used :
!
!     See module documentation.
!
!  5. Called by :
!
!  6. Error messages :
!
!     - Check on previous creation of grid-search-utility object.
!
!  7. Remarks :
!
!     - The target point coordinates may be modified by this routine.
!     - The target point longitude will be shifted to the source grid
!       longitudinal range.
!     - If enclosing cell includes a branch cut, then the coordinates of
!       of the cell vertices AND the target point will be adjusted so
!       that the branch cut is shifted 180 degrees.
!
!  8. Structure :
!
!     -----------------------------------------------------------------
!      1.  Test input
!      2.  Initialize search
!      3.  Search for enclosing cell
!     -----------------------------------------------------------------
!
!  9. Switches :
!
!     !/S    Enable subroutine tracing.
!
! 10. Source code :
!/
!/ ------------------------------------------------------------------- /
!/
      FUNCTION W3GFCD_R4( GSU, XT, YT, IS, JS, XS, YS, &
                          POLE, EPS, DEBUG ) RESULT(INGRID)
!     Single precision interface
      LOGICAL                 :: INGRID
      TYPE(T_GSU), INTENT(IN) :: GSU
      REAL(4), INTENT(INOUT)  :: XT
      REAL(4), INTENT(INOUT)  :: YT
      INTEGER, INTENT(INOUT)  :: IS(4), JS(4)
      REAL(4), INTENT(INOUT)  :: XS(4), YS(4)
      LOGICAL, INTENT(OUT),OPTIONAL :: POLE
      REAL(4), INTENT(IN), OPTIONAL :: EPS
      LOGICAL, INTENT(IN), OPTIONAL :: DEBUG

!     Local parameters
      REAL(8) :: XT8, YT8, XS8(4), YS8(4), EPS8
!/S      INTEGER, SAVE           :: IENT = 0
!/S      CALL STRACE (IENT, 'W3GFCD_R4')
!
!-----set inputs
      XT8 = XT; YT8 = YT;
      IF ( PRESENT(EPS) ) THEN
          EPS8 = EPS
        ELSE
          EPS8 = EPS_DEFAULT
        END IF
!
!-----call double precision method
      INGRID = W3GFCD( GSU, XT8, YT8, IS, JS, XS8, YS8, POLE=POLE, &
                       EPS=EPS8, DEBUG=DEBUG )
!
!-----set outputs
      XT = XT8; YT = YT8;
      XS = XS8; YS = YS8;

      END FUNCTION W3GFCD_R4
!/
!/ ------------------------------------------------------------------- /
!/
      FUNCTION W3GFCD_R8( GSU, XT, YT, IS, JS, XS, YS, &
                          POLE, EPS, DEBUG ) RESULT(INGRID)
!     Double precision interface
      LOGICAL                 :: INGRID
      TYPE(T_GSU), INTENT(IN) :: GSU
      REAL(8), INTENT(INOUT)  :: XT
      REAL(8), INTENT(INOUT)  :: YT
      INTEGER, INTENT(INOUT)  :: IS(4), JS(4)
      REAL(8), INTENT(INOUT)  :: XS(4), YS(4)
      LOGICAL, INTENT(OUT),OPTIONAL :: POLE
      REAL(8), INTENT(IN), OPTIONAL :: EPS
      LOGICAL, INTENT(IN), OPTIONAL :: DEBUG

!     Local parameters
      REAL(8) :: LEPS
      LOGICAL :: LDBG, LPLC
      INTEGER :: I, J, L
      LOGICAL :: IJG, LLG, LCLO, L360
      INTEGER :: ICLO, GKIND
      INTEGER :: LBX, LBY, UBX, UBY, NX, NY
      INTEGER :: LXC, LYC, UXC, UYC
      REAL(4), POINTER :: XG4(:,:), YG4(:,:)
      REAL(8), POINTER :: XG8(:,:), YG8(:,:)
!/S      INTEGER, SAVE           :: IENT = 0
!/S      CALL STRACE (IENT, 'W3GFCD_R8')
!
! -------------------------------------------------------------------- /
! 1.  Test input
!
      IF ( .NOT.ASSOCIATED(GSU%PTR) ) THEN
          WRITE(0,'(/2A/)') 'W3GFCD_R8 ERROR -- ', &
          'grid search utility object not created'
          CALL EXTCDE (1)
        END IF
      IF ( PRESENT(EPS) ) THEN
          IF ( EPS .LT. ZERO ) THEN
              WRITE(0,'(/2A/)') 'W3GFCD_R8 ERROR -- ', &
              'EPS parameter must be >= 0'
              CALL EXTCDE (1)
            END IF
          LEPS = EPS
        ELSE
          LEPS = EPS_DEFAULT
        END IF
!
! -------------------------------------------------------------------- /
! 2.  Initialize search
!
      IF ( PRESENT(DEBUG) ) THEN
          LDBG = DEBUG
        ELSE
          LDBG = .FALSE.
        END IF
!
!  Local pointers to grid search utility object data
      IJG = GSU%PTR%IJG
      LLG = GSU%PTR%LLG
      ICLO = GSU%PTR%ICLO
      LCLO = GSU%PTR%LCLO
      L360 = GSU%PTR%L360
      GKIND = GSU%PTR%GKIND
      LBX = GSU%PTR%LBX;  LBY = GSU%PTR%LBY;
      UBX = GSU%PTR%UBX;  UBY = GSU%PTR%UBY;
      NX = GSU%PTR%NX;  NY = GSU%PTR%NY;
      IF ( GKIND.EQ.4 ) THEN
          XG4 => GSU%PTR%XG4;  YG4 => GSU%PTR%YG4;
        ELSE
          XG8 => GSU%PTR%XG8;  YG8 => GSU%PTR%YG8;
        END IF
!
      INGRID = .FALSE.
!
!  Shift target to appropriate longitude range
      IF ( LLG ) THEN
          XT = MOD(XT,REAL(D360,8))
          IF ( LCLO .OR. L360 ) THEN
              IF ( XT.LT.ZERO ) XT = XT + D360
            ELSE
              IF ( XT.GT.D180 ) XT = XT - D360
            END IF
        END IF
      IF ( LDBG ) &
      WRITE(*,'(/A,2E24.16)') 'W3GFCD_R8 - TARGET POINT:',XT,YT

!-----number of cells
      LXC = LBX;  LYC = LBY;
      SELECT CASE ( ICLO )
          CASE ( ICLO_NONE )
            UXC = UBX-1;  UYC = UBY-1;
          CASE ( ICLO_GRDI )
            UXC = UBX;    UYC = UBY-1;
          CASE ( ICLO_GRDJ )
            UXC = UBX-1;  UYC = UBY;
          CASE ( ICLO_TRDL )
            UXC = UBX;    UYC = UBY;
          CASE ( ICLO_TRPL )
            UXC = UBX;    UYC = UBY;
        END SELECT
!
! -------------------------------------------------------------------- /
! 3.  Search for enclosing cell
!
      CELL_LOOP: DO I=LXC,UXC
          DO J=LYC,UYC
!-------------create list of cell vertices
              IS(1) = I  ;  JS(1) = J  ;
              IS(2) = I+1;  JS(2) = J  ;
              IS(3) = I+1;  JS(3) = J+1;
              IS(4) = I  ;  JS(4) = J+1;
!-------------setup cell corner coordinates and adjust for periodicity
              DO L=1,4
!-----------------apply index closure
                  IF ( MOD(ICLO,2).EQ.0 ) &
                      IS(L) = LBX + MOD(NX - 1 + MOD(IS(L) - LBX + 1, NX), NX)
                  IF ( MOD(ICLO,3).EQ.0 ) &
                      JS(L) = LBY + MOD(NY - 1 + MOD(JS(L) - LBY + 1, NY), NY)
                  IF ( ICLO.EQ.ICLO_TRPL .AND. JS(L).GT.UBY ) THEN
                      IS(L) = UBX + LBX - IS(L)
                      JS(L) = 2*UBY - JS(L) + 1
                    END IF
!-----------------copy cell vertex coordinates into local variables
                  IF ( IJG ) THEN
                      IF ( GKIND.EQ.4 ) THEN
                          XS(L) = XG4(IS(L),JS(L));  YS(L) = YG4(IS(L),JS(L));
                        ELSE
                          XS(L) = XG8(IS(L),JS(L));  YS(L) = YG8(IS(L),JS(L));
                        END IF
                    ELSE
                      IF ( GKIND.EQ.4 ) THEN
                          XS(L) = XG4(JS(L),IS(L));  YS(L) = YG4(JS(L),IS(L));
                        ELSE
                          XS(L) = XG8(JS(L),IS(L));  YS(L) = YG8(JS(L),IS(L));
                        END IF
                    END IF
!-----------------shift longitudes to same range
                  IF ( LLG ) THEN
                      XS(L) = MOD(XS(L),REAL(D360,8))
                      IF ( LCLO .OR. L360 ) THEN
                          IF ( XS(L).LT.ZERO ) XS(L) = XS(L) + D360
                        ELSE
                          IF ( XS(L).GT.D180 ) XS(L) = XS(L) - D360
                        END IF
                    END IF
                END DO !L
              IF ( LDBG ) &
              WRITE(*,'(A,4(/A,1I1,A,2I6,2E24.16))') &
              'W3GFCD_R8 - CHECK CELL:', &
              ('          CORNER(',L,'):',IS(L),JS(L),XS(L),YS(L),L=1,4)
!-------------check if point is enclosed in cell defined by xs(1:4) & ys(1:4)
              INGRID = W3CKCL(LLG,XT,YT,4,XS,YS,LPLC,LEPS,LDBG)
              IF ( LDBG ) WRITE(*,'(A,1L2)')'W3GFCD_R8 - INGRID:',INGRID
              IF ( INGRID ) THEN
!-----------------exit search
                  IF ( LDBG ) &
                  WRITE(*,'(A,4(2I6))') &
                  'W3GFCD_R8 - ENCLOSING CELL:',(IS(L),JS(L),L=1,4)
                  IF ( PRESENT(POLE) ) POLE = LPLC
                EXIT CELL_LOOP 
              END IF !point in cell
            END DO !J
        END DO CELL_LOOP

      END FUNCTION W3GFCD_R8
!/
!/ End of W3GFCD ===================================================== /
!/








!/
!/ =================================================================== /
!/
!/    FUNCTION W3GFPT( GSU, XTIN, YTIN, IX, IY, EPS, DCIN, DEBUG ) &
!/    RESULT(INGRID)
!/
!/ =================================================================== /
!/
!  1. Purpose :
!
!     Find point in grid, associated with the input grid-search-utility
!     object (GSU), that is closest to the target point (xtin,ytin).
!
!  2. Method :
!
!  3. Parameters :
!
!     Return parameter
!     ----------------------------------------------------------------
!       INGRID  Log.   O   Logical flag indicating if target point lies
!                          within the source grid domain.
!     ----------------------------------------------------------------
!
!     Parameter list
!     ----------------------------------------------------------------
!       GSU     Type   I   Grid-search-utility object.
!       XTIN    Real   I   X-coordinate of target point.
!       YTIN    Real   I   Y-coordinate of target point.
!       IX,JX   I.A.   O   (I,J) indices of nearest grid point.
!       EPS     Real   I   OPTIONAL small non-zero tolerance used to check if
!                          target point is in domain and for point coincidence.
!       DCIN    Real   I   OPTIONAL distance outside of source grid in
!                          units of cell width to treat target point as
!                          inside the source grid.
!                          Default is 0.
!       DEBUG   Log.   I   OPTIONAL logical flag to turn on debug mode.
!                          Default is FALSE.
!     ----------------------------------------------------------------
!
!  4. Subroutines used :
!
!     See module documentation.
!
!  5. Called by :
!
!  6. Error messages :
!
!     - Check on previous initialization of grid search utility object.
!
!  7. Remarks :
!
!  8. Structure :
!
!     -----------------------------------------------------------------
!      1.  Test input
!      2.  Initialize search
!      3.  Find enclosing cell and compute closest point
!     -----------------------------------------------------------------
!
!  9. Switches :
!
!     !/S    Enable subroutine tracing.
!
! 10. Source code :
!/
!/ ------------------------------------------------------------------- /
!/
      FUNCTION W3GFPT_R4( GSU, XTIN, YTIN, IX, IY, EPS, DCIN, DEBUG ) &
      RESULT(INGRID)
!     Single precision interface
      LOGICAL                 :: INGRID
      TYPE(T_GSU), INTENT(IN) :: GSU
      REAL(4), INTENT(IN)     :: XTIN
      REAL(4), INTENT(IN)     :: YTIN
      INTEGER, INTENT(OUT)    :: IX, IY
      REAL(4), INTENT(IN), OPTIONAL :: EPS
      REAL(4), INTENT(IN), OPTIONAL :: DCIN
      LOGICAL, INTENT(IN), OPTIONAL :: DEBUG

!     Local parameters
      REAL(8) :: XT8, YT8, EPS8, DCIN8
!/S      INTEGER, SAVE           :: IENT = 0
!/S      CALL STRACE (IENT, 'W3GFPT_R4')
!
!-----set inputs
      XT8 = XTIN; YT8 = YTIN;
      IF ( PRESENT(EPS) ) THEN
          EPS8 = EPS
        ELSE
          EPS8 = EPS_DEFAULT
        END IF
      IF ( PRESENT(DCIN) ) THEN
          DCIN8 = DCIN
        ELSE
          DCIN8 = ZERO
        END IF
!
!-----call double precision method
      INGRID = W3GFPT( GSU, XT8, YT8, IX, IY, EPS=EPS8, DCIN=DCIN8, &
                       DEBUG=DEBUG )

      END FUNCTION W3GFPT_R4
!/
!/ ------------------------------------------------------------------- /
!/
      FUNCTION W3GFPT_R8( GSU, XTIN, YTIN, IX, IY, EPS, DCIN, DEBUG ) &
      RESULT(INGRID)
!     Single precision interface
      LOGICAL                 :: INGRID
      TYPE(T_GSU), INTENT(IN) :: GSU
      REAL(8), INTENT(IN)     :: XTIN
      REAL(8), INTENT(IN)     :: YTIN
      INTEGER, INTENT(OUT)    :: IX, IY
      REAL(8), INTENT(IN), OPTIONAL :: EPS
      REAL(8), INTENT(IN), OPTIONAL :: DCIN
      LOGICAL, INTENT(IN), OPTIONAL :: DEBUG

!     Local parameters
      REAL(8), PARAMETER :: BIG = 1D16
      REAL(8) :: LEPS, LDCIN
      LOGICAL :: LDBG, FNCL
      INTEGER :: I, L
      INTEGER :: IS(4), JS(4)
      REAL(8) :: XT, YT, XS(4), YS(4)
      REAL(8) :: XTC, YTC, XSC(4), YSC(4)
      REAL(8) :: IXR, JXR, DD, LON0, LAT0, DMIN
      LOGICAL :: IJG, LLG
!/S      INTEGER, SAVE           :: IENT = 0
!/S      CALL STRACE (IENT, 'W3GFPT_R8')
!
! -------------------------------------------------------------------- /
! 1.  Test input
!
      IF ( .NOT.ASSOCIATED(GSU%PTR) ) THEN
          WRITE(0,'(/2A/)') 'W3GFPT_R8 ERROR -- ', &
          'grid search utility object not created'
          CALL EXTCDE (1)
        END IF
      IF ( PRESENT(EPS) ) THEN
          IF ( EPS .LT. ZERO ) THEN
              WRITE(0,'(/2A/)') 'W3GFPT_R8 ERROR -- ', &
              'EPS parameter must be >= 0'
              CALL EXTCDE (1)
            END IF
          LEPS = EPS
        ELSE
          LEPS = EPS_DEFAULT
        END IF
      IF ( PRESENT(DCIN) ) THEN
          IF ( DCIN .LT. ZERO ) THEN
              WRITE(0,'(/2A/)') 'W3GFPT_R8 ERROR -- ', &
              'DCIN parameter must be >= 0'
              CALL EXTCDE (1)
            END IF
          LDCIN = DCIN
        ELSE
          LDCIN = ZERO
        END IF
!
! -------------------------------------------------------------------- /
! 2.  Initialize search
!
      IF ( PRESENT(DEBUG) ) THEN
          LDBG = DEBUG
        ELSE
          LDBG = .FALSE.
        END IF
!
!  Local pointers to grid search utility object data
      IJG = GSU%PTR%IJG
      LLG = GSU%PTR%LLG
!
      INGRID = .FALSE.
      IX = GSU%PTR%LBX-1
      IY = GSU%PTR%LBY-1
!
      XT = XTIN;  YT = YTIN;
      IF ( LDBG ) &
      WRITE(*,'(/A,2E24.16)') 'W3GFPT_R8 - TARGET POINT:',XT,YT
!
! -------------------------------------------------------------------- /
! 3.  Find enclosing cell and compute closest point
!
      FNCL = LDCIN .GT. ZERO
      INGRID = W3GFCL( GSU, XT, YT, IS, JS, XS, YS, EPS=LEPS, FNCL=FNCL, DEBUG=LDBG )
      IF ( .NOT.INGRID .AND. .NOT.FNCL ) RETURN
!
!-----Set in grid if point is within DCIN cell width distance of closest cell
      IF ( .NOT.INGRID .AND. FNCL ) THEN
!-------Compute cell relative index space location
        LON0 = SUM(XS)/FOUR; LAT0 = SUM(YS)/FOUR;
        IF ( D90-ABS(LAT0).GT.NEAR_POLE ) THEN
!-----------non-pole cell: compute relative location using (lon,lat)
            CALL GETPQR(XT,YT,XS,YS,IXR,JXR,EPS=LEPS,DEBUG=LDBG)
          ELSE
!-----------pole cell: compute relative location using stereographic projection
            CALL W3SPLX(LON0,LAT0,ZERO,XT,YT,XTC,YTC)
            DO I=1,4
                CALL W3SPLX(LON0,LAT0,ZERO,XS(I),YS(I),XSC(I),YSC(I))
              END DO
            CALL GETPQR(XTC,YTC,XSC,YSC,IXR,JXR,EPS=LEPS,DEBUG=LDBG)
          ENDIF
          DD = HALF + LDCIN
          INGRID = ABS(IXR-HALF).LE.DD .AND. ABS(JXR-HALF).LE.DD
        END IF
!
!-----Compute indices of closest point in cell
      IF ( INGRID ) THEN
        DMIN = BIG
        DO L=1,4
            DD = W3DIST( LLG, XT, YT, XS(L), YS(L) )
            IF ( DD .LT. DMIN ) THEN
                DMIN = DD;  IX = IS(L);  IY = JS(L);
              END IF
          END DO !L
        END IF

      END FUNCTION W3GFPT_R8
!/
!/ End of W3GFPT ===================================================== /
!/








!/
!/ =================================================================== /
!/
!/    FUNCTION W3GFIJ( GSU, XTIN, YTIN, IX, JX, EPS, DCIN, DEBUG ) &
!/    RESULT(INGRID)
!/
!/ =================================================================== /
!/
!  1. Purpose :
!
!     Compute coordinates ( ix, jx ) of target point ( xtin, ytin ) in
!     source grid index space from source grid associated with the input
!     grid search utility object (GSU).
!
!  2. Method :
!
!  3. Parameters :
!
!     Return parameter
!     ----------------------------------------------------------------
!       INGRID  Log.   O   Logical flag indicating if target point lies
!                          within the source grid domain.
!     ----------------------------------------------------------------
!
!     Parameter list
[...]
!     dphi/dx = (-alpha/(  R*k0)) * cos(nu)^2 * sin(mu)
!     dphi/dy = (     1/(  R*k0)) * cos(nu)^2 * cos(mu)
!
!     dlam/dp = dx/dp*dlam/dx + dy/dp*dlam/dy
!     dphi/dp = dx/dp*dphi/dx + dy/dp*dphi/dy
!     dlam/dq = dx/dq*dlam/dx + dy/dq*dlam/dy
!     dphi/dq = dx/dq*dphi/dx + dy/dq*dphi/dy
!
      REAL(8),INTENT(IN) :: LAM0, C0
      INTEGER,INTENT(IN) :: IHEM
      REAL(8),INTENT(IN) :: LAM, PHI
      REAL(8),INTENT(IN) :: DXDQ, DYDQ
      REAL(8),INTENT(OUT):: DLAMDQ, DPHIDQ

!     Local parameters
      REAL(8), PARAMETER :: SMALL = 1D-6
      REAL(8) :: K0, A, MU, NU, FAC
      REAL(8) :: COSMU, SINMU, COSNU2, COTNU
      REAL(8) :: DLAMDX, DLAMDY, DPHIDX, DPHIDY

      K0  = COS(HALF*C0*D2R)**2
      MU  = (LAM-LAM0)*D2R
      A   = SIGN(ONE,REAL(IHEM,8))
      NU  = PIO4 - A*HALF*PHI*D2R
      NU  = SIGN(MAX(SMALL,ABS(NU)),NU)
      FAC = R2D*HALF/REARTH/K0

      COSMU  = COS(MU)
      SINMU  = SIN(MU)
      COSNU2 = COS(NU)**2
      COTNU  = ONE/TAN(NU)

      DLAMDX =        FAC*COTNU*COSMU
      DLAMDY =      A*FAC*COTNU*SINMU
      DPHIDX = -A*TWO*FAC*COSNU2*SINMU
      DPHIDY =    TWO*FAC*COSNU2*COSMU

      DLAMDQ = DXDQ*DLAMDX + DYDQ*DLAMDY
      DPHIDQ = DXDQ*DPHIDX + DYDQ*DPHIDY

      END SUBROUTINE SPDDQ
!/
!/ ------------------------------------------------------------------- /
!/
#undef  DFDPQ_SINGLE_POINT_WIDE_CHANNEL_ERROR
#undef  DFDPQ_SINGLE_POINT_WIDE_CHANNEL_WARNING
      SUBROUTINE DFDPQ( N, K, C, IJG, ICLO, &
                        PTILED, QTILED, &
                        PRANGE, QRANGE, &
                        LB, UB, P, Q, &
                        F4, F8, DFDP, DFDQ, &
                        G4, G8, DGDP, DGDQ, &
                        H4, H8, DHDP, DHDQ, &
                        NSDP, ISDP, JSDP, CSDP, &
                        NSDQ, ISDQ, JSDQ, CSDQ, &
                        MASK, RC )
!     *** INTERNAL SUBROUTINE ***
      INTEGER, INTENT(IN)   :: N
      INTEGER, INTENT(IN)   :: K(0:N,0:N,1:N)
      REAL(8), INTENT(IN)   :: C(0:N,0:N,1:N)
      LOGICAL, INTENT(IN)   :: IJG
      INTEGER, INTENT(IN)   :: ICLO
      LOGICAL, INTENT(IN)   :: PTILED, QTILED
      INTEGER, INTENT(IN)   :: PRANGE(2), QRANGE(2)
      INTEGER, INTENT(IN)   :: LB(2), UB(2)
      INTEGER, INTENT(IN)   :: P, Q
      REAL(4), INTENT(IN),  OPTIONAL :: F4(LB(1):UB(1),LB(2):UB(2))
      REAL(8), INTENT(IN),  OPTIONAL :: F8(LB(1):UB(1),LB(2):UB(2))
      REAL(8), INTENT(OUT), OPTIONAL :: DFDP, DFDQ
      REAL(4), INTENT(IN),  OPTIONAL :: G4(LB(1):UB(1),LB(2):UB(2))
      REAL(8), INTENT(IN),  OPTIONAL :: G8(LB(1):UB(1),LB(2):UB(2))
      REAL(8), INTENT(OUT), OPTIONAL :: DGDP, DGDQ
      REAL(4), INTENT(IN),  OPTIONAL :: H4(LB(1):UB(1),LB(2):UB(2))
      REAL(8), INTENT(IN),  OPTIONAL :: H8(LB(1):UB(1),LB(2):UB(2))
      REAL(8), INTENT(OUT), OPTIONAL :: DHDP, DHDQ
      INTEGER, INTENT(OUT), OPTIONAL :: NSDP
      INTEGER, POINTER,     OPTIONAL :: ISDP(:), JSDP(:)
      REAL(8), POINTER,     OPTIONAL :: CSDP(:)
      INTEGER, INTENT(OUT), OPTIONAL :: NSDQ
      INTEGER, POINTER,     OPTIONAL :: ISDQ(:), JSDQ(:)
      REAL(8), POINTER,     OPTIONAL :: CSDQ(:)
      LOGICAL, INTENT(IN),  OPTIONAL :: MASK(LB(1):UB(1),LB(2):UB(2))
      INTEGER, INTENT(OUT), OPTIONAL :: RC

!     Local parameters
      INTEGER, PARAMETER :: M = 1 ! order of derivative
      LOGICAL, PARAMETER :: DEBUG = .FALSE.
      CHARACTER(64) :: FSTR
      LOGICAL :: COMP_M, COMP_F, COMP_G, COMP_H, TYPE_R4
      LOGICAL :: COMP_CP, COMP_CQ
      INTEGER :: NP, NQ, LBP, LBQ, UBP, UBQ, P0, Q0
      INTEGER :: ISTAT=0, I, J, L, II, JJ, NI, NJ, II0, IIN, JJ0, JJN
      INTEGER :: KP(0:N), KQ(0:N)
      LOGICAL :: MP(0:N), MQ(0:N)
      REAL(8) :: FP(0:N), FQ(0:N)
      REAL(8) :: GP(0:N), GQ(0:N)
      REAL(8) :: HP(0:N), HQ(0:N)
      INTEGER :: IP(0:N), IQ(0:N)
      INTEGER :: JP(0:N), JQ(0:N)
!
! -------------------------------------------------------------------- /
! 1.  Check and setup inputs
!
      IF ( PRESENT(RC) ) RC = 0

      COMP_F = ( PRESENT(F4) .OR. PRESENT(F8) ) .AND. &
               PRESENT(DFDP) .AND. PRESENT(DFDQ)
      COMP_G = ( PRESENT(G4) .OR. PRESENT(G8) ) .AND. &
               PRESENT(DGDP) .AND. PRESENT(DGDQ)
      COMP_H = ( PRESENT(H4) .OR. PRESENT(H8) ) .AND. &
               PRESENT(DHDP) .AND. PRESENT(DHDQ)
      COMP_CP = PRESENT(NSDP) .AND. PRESENT(ISDP) .AND. &
                PRESENT(JSDP) .AND. PRESENT(CSDP)
      COMP_CQ = PRESENT(NSDQ) .AND. PRESENT(ISDQ) .AND. &
                PRESENT(JSDQ) .AND. PRESENT(CSDQ)
      IF ( .NOT.COMP_F.AND..NOT.COMP_G.AND..NOT.COMP_H.AND. &
           .NOT.COMP_CP.AND..NOT.COMP_CQ ) RETURN

      IF ( COMP_F ) THEN
          TYPE_R4 = PRESENT(F4)
        ELSE IF ( COMP_G ) THEN
          TYPE_R4 = PRESENT(G4)
        ELSE IF ( COMP_H ) THEN
          TYPE_R4 = PRESENT(H4)
        END IF

      NP = PRANGE(2) - PRANGE(1) + 1
      NQ = QRANGE(2) - QRANGE(1) + 1

      IF ( IJG ) THEN
          LBP = LB(1); LBQ = LB(2)
          UBP = UB(1); UBQ = UB(2)
        ELSE
          LBP = LB(2); LBQ = LB(1)
          UBP = UB(2); UBQ = UB(1)
        END IF

      IF ( P.LT.LBP .OR. P.GT.UBP .OR. Q.LT.LBQ .OR. Q.GT.UBQ ) THEN
          WRITE(0,'(/1A,/1A,1L2,5I6,/1A,1L2,5I6/)') 'DFDPQ ERROR -- '// &
          'input index coordinates outside input array bounds', &
          'DFDPQ ERROR -- PTILED,PRANGE,P,LBP,UBP:',PTILED,PRANGE,P,LBP,UBP, &
          'DFDPQ ERROR -- QTILED,QRANGE,Q,LBQ,UBQ:',QTILED,QRANGE,Q,LBQ,UBQ
          ISTAT = 1
          IF ( PRESENT(RC) ) THEN
              RC = ISTAT
              RETURN
            ELSE
              CALL EXTCDE (ISTAT)
            END IF
        END IF

      P0 = P
      Q0 = Q
      IF ( MOD(ICLO,2).EQ.0 ) &
        P0 = PRANGE(1) + MOD(NP - 1 + MOD(P0 - PRANGE(1) + 1, NP), NP)
      IF ( MOD(ICLO,3).EQ.0 ) &
        Q0 = QRANGE(1) + MOD(NQ - 1 + MOD(Q0 - QRANGE(1) + 1, NQ), NQ)
      IF ( ICLO.EQ.ICLO_TRPL .AND. Q0.GT.QRANGE(2) ) THEN
          P0 = PRANGE(2) + PRANGE(1) - P0
          Q0 = 2*QRANGE(2) - Q0 + 1
        END IF
      IF ( P0.LT.PRANGE(1) .OR. P0.GT.PRANGE(2) .OR. &
           Q0.LT.QRANGE(1) .OR. Q0.GT.QRANGE(2) ) THEN
          WRITE(0,'(/1A,/1A,4I6,/1A,4I6/)') 'DFDPQ ERROR -- '// &
          'shifted input index coordinates outside allowed range', &
          'DFDPQ ERROR -- PRANGE,P,P0:',PRANGE,P,P0, &
          'DFDPQ ERROR -- QRANGE,Q,Q0:',QRANGE,Q,Q0
          ISTAT = 1
          IF ( PRESENT(RC) ) THEN
              RC = ISTAT
              RETURN
            ELSE
              CALL EXTCDE (ISTAT)
            END IF
        END IF

      COMP_M = PRESENT(MASK)
      IF ( COMP_M ) THEN
          IF ( IJG ) THEN
               IF ( MASK(P0,Q0) ) RETURN
            ELSE
               IF ( MASK(Q0,P0) ) RETURN
            END IF
        END IF
!
! -------------------------------------------------------------------- /
! 2.  Compute DF/DP
!
      IF ( COMP_F.OR.COMP_G.OR.COMP_H.OR.COMP_CP ) THEN

      IF ( MOD(ICLO,2).EQ.0 ) THEN
          I = N/2
        ELSE
          IF (P0-PRANGE(1).LT.N/2) THEN
              I = P0 - PRANGE(1)
            ELSE IF (PRANGE(2)-P0.LT.N/2) THEN
              I = N + P0 - PRANGE(2)
            ELSE
              I = N/2
            END IF
        END IF

      KP(:) = P + K(:,I,N)
      KQ(:) = Q
      IF ( .NOT.PTILED ) THEN
          IF ( MOD(ICLO,2).EQ.0 ) THEN
              KP = PRANGE(1) + MOD(NP - 1 + MOD(KP - PRANGE(1) + 1, NP), NP)
            END IF
        END IF

      IF ( MINVAL(KP).LT.LBP .OR. MAXVAL(KP).GT.UBP .OR. &
           MINVAL(KQ).LT.LBQ .OR. MAXVAL(KQ).GT.UBQ ) THEN
          WRITE(0,'(/1A,/1A,1L2,8I6,/1A,1L2,8I6/)') 'DFDPQ ERROR -- '// &
          'stencil index coordinates outside array bounds', &
          'DFDPQ ERROR -- PTILED,PRANGE,P,P0,LBP,UBP,PMIN,PMAX:', &
          PTILED,PRANGE,P,P0,LBP,UBP,MINVAL(KP),MAXVAL(KP), &
          'DFDPQ ERROR -- QTILED,QRANGE,Q,Q0,LBQ,UBQ,QMIN,QMAX:', &
          QTILED,QRANGE,Q,Q0,LBQ,UBQ,MINVAL(KQ),MAXVAL(KQ)
          ISTAT = 1
          IF ( PRESENT(RC) ) THEN
              RC = ISTAT
              RETURN
            ELSE
              CALL EXTCDE (ISTAT)
            END IF
        END IF

      IF ( COMP_CP ) THEN
          IP(:) = P0 + K(:,I,N)
          JP(:) = Q0
          IF ( MOD(ICLO,2).EQ.0 ) THEN
              IP = PRANGE(1) + MOD(NP - 1 + MOD(IP - PRANGE(1) + 1, NP), NP)
            END IF
        END IF

      DO L = 0, N
          IF ( IJG ) THEN
              IF ( COMP_M ) MP(L) = MASK(KP(L),KQ(L))
              IF ( TYPE_R4 ) THEN
                  IF ( COMP_F ) FP(L) = F4(KP(L),KQ(L))
                  IF ( COMP_G ) GP(L) = G4(KP(L),KQ(L))
                  IF ( COMP_H ) HP(L) = H4(KP(L),KQ(L))
                ELSE
                  IF ( COMP_F ) FP(L) = F8(KP(L),KQ(L))
                  IF ( COMP_G ) GP(L) = G8(KP(L),KQ(L))
                  IF ( COMP_H ) HP(L) = H8(KP(L),KQ(L))
                END IF
            ELSE
              IF ( COMP_M ) MP(L) = MASK(KQ(L),KP(L))
              IF ( TYPE_R4 ) THEN
                  IF ( COMP_F ) FP(L) = F4(KQ(L),KP(L))
                  IF ( COMP_G ) GP(L) = G4(KQ(L),KP(L))
                  IF ( COMP_H ) HP(L) = H4(KQ(L),KP(L))
                ELSE
                  IF ( COMP_F ) FP(L) = F8(KQ(L),KP(L))
                  IF ( COMP_G ) GP(L) = G8(KQ(L),KP(L))
                  IF ( COMP_H ) HP(L) = H8(KQ(L),KP(L))
                END IF
            END IF
        END DO

      II = I
      NI = N
      II0 = 0
      IIN = N
      IF ( COMP_M ) THEN
          DO L = I-1, 0, -1
              IF ( MP(L) ) THEN
                  MP(0:L) = .TRUE.
                  EXIT
                END IF
            END DO
          DO L = I+1, N
              IF ( MP(L) ) THEN
                  MP(L:N) = .TRUE.
                  EXIT
                END IF
            END DO
          II = COUNT(.NOT.MP(0:I)) - 1
          NI = COUNT(.NOT.MP(0:N)) - 1
          II0 = I - II
          IIN = II0 + NI
        END IF
#ifdef DFDPQ_SINGLE_POINT_WIDE_CHANNEL_ERROR
      IF ( NI.LE.0 ) THEN
          WRITE(0,'(/1A,1A,4I6/)') 'DFDPQ ERROR -- ', &
          'DFDP -- single point wide channel not allowed',P,Q,P0,Q0
          ISTAT = 1
          IF ( PRESENT(RC) ) THEN
              RC = ISTAT
              RETURN
            ELSE
              CALL EXTCDE (ISTAT)
            END IF
        END IF
#endif

      IF ( NI.GT.0 ) THEN
          IF ( COMP_F ) DFDP = DOT_PRODUCT(C(0:NI,II,NI),FP(II0:IIN))
          IF ( COMP_G ) DGDP = DOT_PRODUCT(C(0:NI,II,NI),GP(II0:IIN))
          IF ( COMP_H ) DHDP = DOT_PRODUCT(C(0:NI,II,NI),HP(II0:IIN))
          IF ( COMP_CP ) THEN
              IF ( ASSOCIATED(ISDP) ) DEALLOCATE(ISDP)
              IF ( ASSOCIATED(JSDP) ) DEALLOCATE(JSDP)
              IF ( ASSOCIATED(CSDP) ) DEALLOCATE(CSDP)
              NSDP = NI+1
              ALLOCATE(ISDP(NSDP),JSDP(NSDP),CSDP(NSDP))
              ISDP(1:NSDP) = IP(II0:IIN)
              JSDP(1:NSDP) = JP(II0:IIN)
              CSDP(1:NSDP) = C(0:NI,II,NI)
            END IF
          IF ( DEBUG .AND. COMP_F ) THEN
              WRITE(FSTR,'(A,I0,A,I0,A,I0,A)') '(/1A,8I6,E16.8,/1A,',&
              NI+1,'I16,/1A,',NI+1,'E16.8,/1A,',NI+1,'E16.8)'
              WRITE(*,TRIM(FSTR)) &
              'DFDPQ -- DFDP -- P,Q,P0,Q0,NI,II,II0,IIN,DFDP:',&
                                P,Q,P0,Q0,NI,II,II0,IIN,DFDP, &
              'DFDPQ -- DFDP --  K:', K(0:NI,II,NI), &
              'DFDPQ -- DFDP --  C:', C(0:NI,II,NI), &
              'DFDPQ -- DFDP -- FP:', FP(II0:IIN)
            END IF
        ELSE
#ifdef DFDPQ_SINGLE_POINT_WIDE_CHANNEL_WARNING
          WRITE(0,'(/1A,1A,4I6/)') 'DFDPQ WARNING -- ', &
          'single point wide channel, DFDP set to zero:',P,Q,P0,Q0
#endif
          IF ( COMP_F ) DFDP = ZERO
          IF ( COMP_G ) DGDP = ZERO
          IF ( COMP_H ) DHDP = ZERO
          IF ( COMP_CP ) NSDP = 0
        END IF

        END IF
!
! -------------------------------------------------------------------- /
! 3.  Compute DF/DQ
!
      IF ( COMP_F.OR.COMP_G.OR.COMP_H.OR.COMP_CQ ) THEN

      IF ( MOD(ICLO,3).EQ.0 ) THEN
          J = N/2
        ELSE IF ( ICLO.EQ.ICLO_TRPL ) THEN
          IF (Q0-QRANGE(1).LT.N/2) THEN
              J = Q0 - QRANGE(1)
            ELSE
              J = N/2
            END IF
        ELSE
          IF (Q0-QRANGE(1).LT.N/2) THEN
              J = Q0 - QRANGE(1)
            ELSE IF (QRANGE(2)-Q0.LT.N/2) THEN
              J = N + Q0 - QRANGE(2)
            ELSE
              J = N/2
            END IF
        END IF

      KP(:) = P
      KQ(:) = Q + K(:,J,N)
      IF ( .NOT.QTILED ) THEN
          IF ( MOD(ICLO,3).EQ.0 ) THEN
              KQ = QRANGE(1) + MOD(NQ - 1 + MOD(KQ - QRANGE(1) + 1, NQ), NQ)
            END IF
          IF ( ICLO.EQ.ICLO_TRPL .AND. .NOT.PTILED ) THEN
              WHERE ( KQ.GT.QRANGE(2) )
                  KP = PRANGE(2) + PRANGE(1) - KP
                  KQ = 2*QRANGE(2) - KQ + 1
                END WHERE
            END IF
        END IF

      IF ( MINVAL(KP).LT.LBP .OR. MAXVAL(KP).GT.UBP .OR. &
           MINVAL(KQ).LT.LBQ .OR. MAXVAL(KQ).GT.UBQ ) THEN
          WRITE(0,'(/1A,/1A,1L2,8I6,/1A,1L2,8I6/)') 'DFDPQ ERROR -- '// &
          'stencil index coordinates outside array bounds', &
          'DFDPQ ERROR -- PTILED,PRANGE,P,P0,LBP,UBP,PMIN,PMAX:', &
          PTILED,PRANGE,P,P0,LBP,UBP,MINVAL(KP),MAXVAL(KP), &
          'DFDPQ ERROR -- QTILED,QRANGE,Q,Q0,LBQ,UBQ,QMIN,QMAX:', &
          QTILED,QRANGE,Q,Q0,LBQ,UBQ,MINVAL(KQ),MAXVAL(KQ)
          ISTAT = 1
          IF ( PRESENT(RC) ) THEN
              RC = ISTAT
              RETURN
            ELSE
              CALL EXTCDE (ISTAT)
            END IF
        END IF

      IF ( COMP_CQ ) THEN
          IQ(:) = P0
          JQ(:) = Q0 + K(:,J,N)
          IF ( MOD(ICLO,3).EQ.0 ) THEN
              JQ = QRANGE(1) + MOD(NQ - 1 + MOD(JQ - QRANGE(1) + 1, NQ), NQ)
            END IF
          IF ( ICLO.EQ.ICLO_TRPL ) THEN
              WHERE ( JQ.GT.QRANGE(2) )
                  IQ = PRANGE(2) + PRANGE(1) - IQ
                  JQ = 2*QRANGE(2) - JQ + 1
                END WHERE
            END IF
        END IF

      DO L = 0, N
          IF ( IJG ) THEN
              IF ( COMP_M ) MQ(L) = MASK(KP(L),KQ(L))
              IF ( TYPE_R4 ) THEN
                  IF ( COMP_F ) FQ(L) = F4(KP(L),KQ(L))
                  IF ( COMP_G ) GQ(L) = G4(KP(L),KQ(L))
                  IF ( COMP_H ) HQ(L) = H4(KP(L),KQ(L))
                ELSE
                  IF ( COMP_F ) FQ(L) = F8(KP(L),KQ(L))
                  IF ( COMP_G ) GQ(L) = G8(KP(L),KQ(L))
                  IF ( COMP_H ) HQ(L) = H8(KP(L),KQ(L))
                END IF
            ELSE
              IF ( COMP_M ) MQ(L) = MASK(KQ(L),KP(L))
              IF ( TYPE_R4 ) THEN
                  IF ( COMP_F ) FQ(L) = F4(KQ(L),KP(L))
                  IF ( COMP_G ) GQ(L) = G4(KQ(L),KP(L))
                  IF ( COMP_H ) HQ(L) = H4(KQ(L),KP(L))
                ELSE
                  IF ( COMP_F ) FQ(L) = F8(KQ(L),KP(L))
                  IF ( COMP_G ) GQ(L) = G8(KQ(L),KP(L))
                  IF ( COMP_H ) HQ(L) = H8(KQ(L),KP(L))
                END IF
            END IF
        END DO

      JJ = J
      NJ = N
      JJ0 = 0
      JJN = N
      IF ( COMP_M ) THEN
          DO L = J-1, 0, -1
              IF ( MQ(L) ) THEN
                  MQ(0:L) = .TRUE.
                  EXIT
                END IF
            END DO
          DO L = J+1, N
              IF ( MQ(L) ) THEN
                  MQ(L:N) = .TRUE.
                  EXIT
                END IF
            END DO
          JJ = COUNT(.NOT.MQ(0:J)) - 1
          NJ = COUNT(.NOT.MQ(0:N)) - 1
          JJ0 = J - JJ
          JJN = JJ0 + NJ
        END IF
#ifdef DFDPQ_SINGLE_POINT_WIDE_CHANNEL_ERROR
      IF ( NJ.LE.0 ) THEN
          WRITE(0,'(/1A,1A,4I6/)') 'DFDPQ ERROR -- ', &
          'DFDQ -- single point wide channel not allowed',P,Q,P0,Q0
          ISTAT = 1
          IF ( PRESENT(RC) ) THEN
              RC = ISTAT
              RETURN
            ELSE
              CALL EXTCDE (ISTAT)
            END IF
        END IF
#endif

      IF ( NJ.GT.0 ) THEN
          IF ( COMP_F ) DFDQ = DOT_PRODUCT(C(0:NJ,JJ,NJ),FQ(JJ0:JJN))
          IF ( COMP_G ) DGDQ = DOT_PRODUCT(C(0:NJ,JJ,NJ),GQ(JJ0:JJN))
          IF ( COMP_H ) DHDQ = DOT_PRODUCT(C(0:NJ,JJ,NJ),HQ(JJ0:JJN))
          IF ( COMP_CQ ) THEN
              IF ( ASSOCIATED(ISDQ) ) DEALLOCATE(ISDQ)
              IF ( ASSOCIATED(JSDQ) ) DEALLOCATE(JSDQ)
              IF ( ASSOCIATED(CSDQ) ) DEALLOCATE(CSDQ)
              NSDQ = NJ+1
              ALLOCATE(ISDQ(NSDQ),JSDQ(NSDQ),CSDQ(NSDQ))
              ISDQ(1:NSDQ) = IQ(JJ0:JJN)
              JSDQ(1:NSDQ) = JQ(JJ0:JJN)
              CSDQ(1:NSDQ) = C(0:NJ,JJ,NJ)
            END IF
          IF ( DEBUG .AND. COMP_F ) THEN
              WRITE(FSTR,'(A,I0,A,I0,A,I0,A)') '(/1A,8I6,E16.8,/1A,',&
              NJ+1,'I16,/1A,',NJ+1,'E16.8,/1A,',NJ+1,'E16.8)'
              WRITE(*,TRIM(FSTR)) &
              'DFDPQ -- DFDQ -- P,Q,P0,Q0,NJ,JJ,JJ0,JJN,DFDQ:',&
                                P,Q,P0,Q0,NJ,JJ,JJ0,JJN,DFDQ, &
              'DFDPQ -- DFDQ --  K:', K(0:NJ,JJ,NJ), &
              'DFDPQ -- DFDQ --  C:', C(0:NJ,JJ,NJ), &
              'DFDPQ -- DFDQ -- FQ:', FQ(JJ0:JJN)
            END IF
        ELSE
#ifdef DFDPQ_SINGLE_POINT_WIDE_CHANNEL_WARNING
          WRITE(0,'(/1A,1A,4I6/)') 'DFDPQ WARNING -- ', &
          'single point wide channel, DFDQ set to zero:',P,Q,P0,Q0
#endif
          IF ( COMP_F ) DFDQ = ZERO
          IF ( COMP_G ) DGDQ = ZERO
          IF ( COMP_H ) DHDQ = ZERO
          IF ( COMP_CQ ) NSDQ = 0
        END IF

        END IF

      END SUBROUTINE DFDPQ
!/
!/ ------------------------------------------------------------------- /
!/
      SUBROUTINE GET_FDW2( N, M, K, C )
!     *** INTERNAL SUBROUTINE ***
      INTEGER,INTENT(IN) :: N, M
      INTEGER,INTENT(OUT):: K(0:N,0:N)
      REAL(8),INTENT(OUT):: C(0:N,0:N)
      INTEGER :: I, J
      REAL(8) :: A(0:N), B(0:N,0:M)

      DO I = 0, N
          DO J = 0, N
              K(J,I) = J-I
              A(J) = K(J,I)
            END DO
          CALL W3FDWT( N, N, M, ZERO, A, B )
          C(0:N,I) = B(0:N,M)
         !WRITE(0,'(A,I1,2X,11I16)') 'I=',I,K(0:N,I)
         !WRITE(0,'(5X,11E16.8)') C(0:N,I)
        END DO

      END SUBROUTINE GET_FDW2
!/
!/ ------------------------------------------------------------------- /
!/
      SUBROUTINE GET_FDW3( N, M, K, C )
!     *** INTERNAL SUBROUTINE ***
      INTEGER,INTENT(IN) :: N, M
      INTEGER,INTENT(OUT):: K(0:N,0:N,1:N)
      REAL(8),INTENT(OUT):: C(0:N,0:N,1:N)
      INTEGER :: L, I, J
      REAL(8) :: A(0:N), B(0:N,0:M)

      DO L = 1, N
         !WRITE(0,'(A,I1,2X,11A)') 'L=',L,('----------------',I=0,L)
          DO I = 0, L
              DO J = 0, L
                  K(J,I,L) = J-I
                  A(J) = K(J,I,L)
                END DO
              CALL W3FDWT( L, N, M, ZERO, A, B )
              C(0:L,I,L) = B(0:L,M)
             !WRITE(0,'(A,I1,2X,11I16)') 'I=',I,K(0:L,I,L)
             !WRITE(0,'(5X,11E16.8)') C(0:L,I,L)
            END DO
        END DO

      END SUBROUTINE GET_FDW3
!/
!/ ------------------------------------------------------------------- /
!/
!/
!/ End Internal Support Routines ===================================== /
!/
!/








#ifndef ENABLE_WW3
!/
!/ Local routines for use outside of WW3 ============================= /
!/
      SUBROUTINE EXTCDE(IEXIT)
#ifdef ENABLE_MPI
      INCLUDE "mpif.h"
#endif
      INTEGER, INTENT(IN) :: IEXIT
#ifdef ENABLE_MPI
      INTEGER             :: IERR_MPI
      LOGICAL             :: RUN
      CALL MPI_INITIALIZED ( RUN, IERR_MPI )
      IF ( RUN ) THEN
          CALL MPI_ABORT ( MPI_COMM_WORLD, IEXIT, IERR_MPI )
        END IF
#endif
      CALL EXIT(IEXIT)
      END SUBROUTINE EXTCDE
!/
!/ End local routines for use outside of WW3 ========================= /
!/
#endif








!/
!/ End of module W3GSRUMD ============================================ /
!/
      END MODULE W3GSRUMD
