!/ ------------------------------------------------------------------- /
      MODULE W3OUNFMETAMD
!/
!/                  +-----------------------------------+
!/                  | WAVEWATCH III           NOAA/NCEP |
!/                  |           C. Bunney               |
!/                  |                                   |
!/                  |                        FORTRAN 90 |
!/                  | Last update :         26-Jan-2021 |
!/                  +-----------------------------------+
!/
!/    02-Nov-2020 : Creation                            ( version 7.12 )
!/    26-Jan-2021 : Added TP and alternative dir/mag    ( version 7.12 ) 
!/                  metadata for directional fields.
!/
!  1. Purpose :
!
!     Manages user configurable netCDF meta-data for ww3_ounf program.
!
!  2. Method :
!
!     Default netCDF meta data is provided for each WW3 output variable
!     and is stored intentally via the META_T type. The meta values are
!     grouped by component (max 3), field (IFI) and group (IFJ).
!     
!     The user can override this meta data via an input text file
!     with the filename `ounfmeta.inp`.
!
!     Entries in the file are formatted as follows:
!
!       META [ IFI [ IFJ ]  |  FLDID ]   [ IFC ]
!         attr_name = attr_value
!         attr_name = attr_value
!         extra_attr = extra_value [type]
!       ... repeated as many times as required.
!
!     An output field is selected using the META keyword followed by
!     either an [IFI, IFJ] integer pair or a FieldID string. Optionally,
!     either form may be followed by an integer value to select the 
!     component in multi-component fields (such as wind).
!
!     Blank lines and comments lines (starting with $) are ignored.
!
!     attr_name is the netCDF attribute name that you wish to override.
!     This can be one of the following:
!         -  "varnm"
!         -  "ename"
!         -  "standard_name", or "varns"
!         -  "long_name" or "varnl"
!         -  "globwave_name" or "varng"
!         -  "direction_reference", "dir_ref" or "varnd"
!         -  "comment" or "varnc"
!         -  "units"
!         -  "valid_min" or "vmin"
!         -  "valid_max" or "vmax"
!         -  "scale_factor" or "fsc"
!
!     Any other attribute name is assumed to be an optional "extra" 
!     attribute. This extra attribute can take an optional "type"
!     keyworkd to specify the variable tpye of the metadata. If 
!     no type is supplied, it defaults to a characer type. Valud
!     types are one of ["c", "r", "i"] for character/string, 
!     real/float or integer values respectively.
!
!     Global meta data can be specified with a special "META global" line:
!
!       META global
!         extra_attr = extra_value [type]
!         extra_attr = extra_value [type]
!
!     Note: The "META" keyword and the Field Name ID strings (e.g. HS)
!     are case insensitive. All netCDF attribute names are case sensitive.
!
!
!     Example file:
!
!        $ Lines starting with dollars are comments.
!        $ The line starts a meta-data section for the depth field
!        META DPT
!          standard_name = depth
!          long_name = "can be quoted string"
!          comment = or an unquoted string
!          vmax = 999.9
!
!        $ Next one is HSig (group 2, field 1)
!        META 2 1
!          varns = "sig. wave height"
!          varnl = "this is long name"
!
!        $ Next one is second component of wind. It also sets an
!        $ "extra" meta data value (height - a float)
!        META WND 2
!          standard_name = "v-wind"
!          height = 10.0 "r"
!
!        $ Global metadata:
!        META global
!          institution = UKMO
!          comment "space seperated strings should be quoted" c
!          version = 1.0 r
!
!/ ------------------------------------------------------------------- /
!/
      USE NETCDF
      USE CONSTANTS, ONLY: TPIINV
      USE W3GDATMD, ONLY: SIG, NK
!/RTD      USE W3GDATMD, ONLY : FLAGUNR
      USE W3ODATMD, ONLY: PTMETH, PTFCUT, NOGRP, NOGE, NGRPP,           &
                          NDSE, FNMPRE
      USE W3SERVMD, ONLY: EXTCDE, STR_TO_UPPER

      IMPLICIT NONE

      PUBLIC

      LOGICAL, PRIVATE :: DEBUG = .FALSE.

      CHARACTER(LEN=*), PARAMETER :: FN_META = "ounfmeta.inp"

      ! String token used to merge in partition number:
      CHARACTER(LEN=*), PARAMETER :: PART_TOKEN = "<IPART>"

      ! Values to represent "unset" data:
      CHARACTER(LEN=*), PARAMETER :: UNSETC = "unset"
      REAL, PARAMETER             :: UNSETR = HUGE(1.0)

      ! Type for storing a user defined metadata pair:
      TYPE META_PAIR_T
        CHARACTER(LEN=64)  :: ATTNAME = UNSETC
        CHARACTER(LEN=120) :: ATTVAL = UNSETC
        CHARACTER          :: TYPE = 'c'    ! c,i,f/r
      END TYPE META_PAIR_T

      ! Type for storing WW3 netCDF metadata for a variable
      TYPE META_T
        REAL :: FSC, VMIN, VMAX = UNSETR
        CHARACTER(LEN=24)  :: UNITS = UNSETC
        CHARACTER(LEN=20)  :: ENAME = UNSETC
        CHARACTER(LEN=80)  :: VARNM = UNSETC, VARNL = UNSETC
        CHARACTER(LEN=120) :: VARNS = UNSETC ,VARNG = UNSETC, VARND = UNSETC
        CHARACTER(LEN=512) :: VARNC = UNSETC
        TYPE(META_PAIR_T) :: EXTRA

        ! For updating meta only:
        INTEGER :: IFI = 0, IFJ = 0, IFC = 1
        CHARACTER(LEN=6) :: FLDID = ''
      ENDTYPE META_T

      ! Storage for meta data aggregated by component (NFIELD) ...
      TYPE FIELD_T
        TYPE(META_T), POINTER :: META(:)
      END TYPE FIELD_T
       
      ! ... field (IFJ) ...
      TYPE GROUP_T
        TYPE(FIELD_T), ALLOCATABLE :: FIELD(:)
      END TYPE GROUP_T

      ! ... and group (IFI).
      TYPE(GROUP_T), ALLOCATABLE :: GROUP(:)

      ! Storage for the Global meta data (free form):
      ! TODO - maybe implement as a linked list?
      TYPE(META_PAIR_T), ALLOCATABLE :: GLOBAL_META(:)
      INTEGER, PARAMETER :: MAX_GBLMETA = 30
      INTEGER            :: N_GBLMETA

      INTEGER            :: NCVARTYPE   ! netCDF variable type
      CHARACTER(LEN=30)  :: DIRCOM      ! Direction convention comment
      CHARACTER(LEN=128) :: PARTCOM     ! Partitioning method comment

      LOGICAL, PRIVATE   :: VECTOR      ! Vector or dir/mag for dir fields?

      CONTAINS 

!/ ------------------------------------------------------------------- /
      SUBROUTINE INIT_META(VEC)
!/
!/                  +-----------------------------------+
!/                  | WAVEWATCH III           NOAA/NCEP |
!/                  |           C. Bunney               |
!/                  |                                   |
!/                  |                        FORTRAN 90 |
!/                  | Last update :         25-Jan-2021 |
!/                  +-----------------------------------+
!/
!/    09-Nov-2020 : Creation                            ( version 7.12 )
!/    26-Jan-2021 : Added vector flag                   ( version 7.12 )
!/
!
!  1. Purpose :
!
!     Allocates space for the META_T arrays and sets some constants.
!
!/ ------------------------------------------------------------------- /
      IMPLICIT NONE

      LOGICAL, INTENT(IN), OPTIONAL  :: VEC
!/
!/ ------------------------------------------------------------------- /
!/ Local parameters
!/
      LOGICAL :: FLGNML
      INTEGER :: I, J

      VECTOR = .TRUE.
      IF(PRESENT(VEC)) VECTOR = VEC

      ! 1. Allocate nested GROUP, FIELD structure:
      ALLOCATE(GROUP(NOGRP))
      DO I = 1,NOGRP
        ALLOCATE(GROUP(I)%FIELD(NOGE(I)))
        DO J = 1,NOGE(I)
          ALLOCATE(GROUP(I)%FIELD(J)%META(3)) ! Hardcode to 3 components for the moment
        ENDDO
      ENDDO 

      ! Allocate storage for Global meta-data
      ALLOCATE(GLOBAL_META(MAX_GBLMETA))
      N_GBLMETA = 0

      ! 2. Set direction convention:
      DIRCOM = ""
!/RTD      IF ( FLAGUNR ) THEN
!/RTD        DIRCOM = 'True North'
!/RTD      ELSE IF ( .NOT. FLAGUNR ) THEN
!/RTD        DIRCOM = 'Rotated Pole Grid North'
!/RTD      ENDIF
      !  Set partitioning method comment:
      IF ( PTMETH .EQ. 1 ) THEN
         PARTCOM = "Wind sea and swells defined using topographic " //  &
                   "partitions and partition wave-age cut-off "     //  &
                   "(WWIII default scheme)"
      ELSE IF ( PTMETH .EQ. 2 ) THEN
         PARTCOM = "Wind sea and swells defined using topographic " //  &
                   "partitions and spectral wave-age cut-off"
      ELSE IF ( PTMETH .EQ. 3 ) THEN
         PARTCOM = "Wave components defined using topographic "     //  &
                   "partitions only"
      ELSE IF ( PTMETH .EQ. 4 ) THEN
         PARTCOM = "Wind sea and swell defined using spectral "     //  &
                   "wave-age cut-off"
      ELSE IF ( PTMETH .EQ. 5 ) THEN
         WRITE(PARTCOM, '("Wave components defined using ",F5.3,'   //  &
                   '"Hz spectral frequency cutoff")') PTFCUT
      ELSE
         WRITE(PARTCOM, '("PTM_",I1,"_Unknown")') PTMETH
      ENDIF

      ! 3. Set the default values for the OUNF netCDF meta data.
      CALL DEFAULT_META()

      ! If the ounfmeta.inp exists, read this in to override defaults:
      INQUIRE(FILE=TRIM(FNMPRE)//"ounfmeta.inp", EXIST=FLGNML)
      IF(FLGNML) THEN 
         CALL READ_META()
      ENDIF

      END SUBROUTINE INIT_META
!
!/ ------------------------------------------------------------------- /
      SUBROUTINE TEARDOWN_META()
!/
!/                  +-----------------------------------+
!/                  | WAVEWATCH III           NOAA/NCEP |
!/                  |           C. Bunney               |
!/                  |                                   |
!/                  |                        FORTRAN 90 |
!/                  | Last update :         09-Nov-2020 |
!/                  +-----------------------------------+
!/
!/    09-Nov-2020 : Creation                            ( version 7.12 )
!/
!
!  1. Purpose :
!
!     De-allocates memory used for the META_T arrays
!
!/ ------------------------------------------------------------------- /
      IMPLICIT NONE
!/
!/ ------------------------------------------------------------------- /
!/ Local parameters
!/
      INTEGER :: I, J

      DO I = 1,NOGRP
        DO J = 1,NOGE(I)
          DEALLOCATE(GROUP(I)%FIELD(J)%META)
        ENDDO
        DEALLOCATE(GROUP(I)%FIELD)
      ENDDO 
      DEALLOCATE(GROUP)

      DEALLOCATE(GLOBAL_META)

      END SUBROUTINE TEARDOWN_META

!/ ------------------------------------------------------------------- /
      SUBROUTINE NEXT_LINE(NDMI, BUF, ILINE, EOF)
!/
!/                  +-----------------------------------+
!/                  | WAVEWATCH III           NOAA/NCEP |
!/                  |           C. Bunney               |
!/                  |                                   |
!/                  |                        FORTRAN 90 |
!/                  | Last update :         09-Nov-2020 |
!/                  +-----------------------------------+
!/
!/    09-Nov-2020 : Creation                            ( version 7.12 )
!/
!
!  1. Purpose :
!
!     Reads the next valid line from the user meta input file.
!
!  2. Method :
!     Lines are repeatedly read in from the input file until
!     a valid input line is reached. Blank lines and comment lines
!     (starting with $) are skipped.
!
!     If the end of file is reached before any valid line is read
!     then EOF is set to true.
!
!  3. Parameters :
!
!     Parameter list
!     ----------------------------------------------------------------
!       NDMI    Int.  I  Unit number of input file
!       BUF    Char.  O  Next input line read from file
!       ILINE   Int. I/O Line number of file
!       EOF    Bool.  O  True if end-of-file is reached.
!     ----------------------------------------------------------------
!
!/ ------------------------------------------------------------------- /
      IMPLICIT NONE

      INTEGER, INTENT(IN)       :: NDMI
      CHARACTER(*), INTENT(OUT) :: BUF
      INTEGER, INTENT(INOUT)    :: ILINE
      LOGICAL, INTENT(OUT)      :: EOF
!/ ------------------------------------------------------------------- /
!/ Local parameters
!/
      INTEGER :: IERR
      CHARACTER(LEN=10) :: TEST
      
      EOF = .FALSE.

      ! Keep reading from file until we read a line that is not:
      !   - a blank line
      !   - a comment line (starting with $)
      !   - the end of the file
      DO
        READ(NDMI, '(A)', iostat=IERR, err=101, end=100) BUF

        ILINE = ILINE + 1

        ! Remove any tab characters from buffer (replace with a space)
        CALL NOTABS(BUF)

        ! Empty line?
        IF(TRIM(BUF) == '') THEN
          IF(DEBUG) WRITE(*,'(I5,1X,A20)') ILINE, '[blank line]'
          CYCLE
        ENDIF

        ! Read first token on line:
        READ(BUF, *) TEST

        ! Check for comment:
        IF(TEST(1:1) == "$" .OR. TRIM(BUF) == '') THEN
          IF(DEBUG) WRITE(*,'(I5,1X,A20)') ILINE, '[comment line]'
          CYCLE
        ENDIF

        ! Anything else can be considered the "next line"
        RETURN
      ENDDO

!/    Escape locations
!
!     End of file
  100 CONTINUE
      BUF = ''
      EOF = .TRUE.
      RETURN
!
!     I/O Error
  101 CONTINUE
      WRITE(NDSE, 1000) FN_META, ILINE, IERR
      CALL EXTCDE(10)
!
 1000 FORMAT (/' *** WAVEWATCH III ERROR IN W3OUNFMETA : '/           &
               '     ERROR READING METADATA FILE'/                    &
               '     FILENAME = ', A /                                &
               '     LINE NO = ', I5 /                                &
               '     IOSTAT =',I5 /)
!
      END SUBROUTINE NEXT_LINE

!/ ------------------------------------------------------------------- /
      SUBROUTINE NOTABS(STR)
!/
!/                  +-----------------------------------+
!/                  | WAVEWATCH III           NOAA/NCEP |
!/                  |           C. Bunney               |
!/                  |                                   |
!/                  |                        FORTRAN 90 |
!/                  | Last update :         02-Nov-2020 |
!/                  +-----------------------------------+
!/
!/    02-Nov-2020 : Creation                            ( version 7.12 )
!/
!
!  1. Purpose :
!
!     Replaces tab characters in a string with spaces.
!
!  2. Parameters :
!
!     Parameter list
!     ----------------------------------------------------------------
!       STR    Char.  I/O  Character string to process
!     ----------------------------------------------------------------
!
!  3. Remarks : 
!
!     Assumes ASCII encoding! Tab character is ASCII value 9.
!
!/ ------------------------------------------------------------------- /
      IMPLICIT NONE
      CHARACTER(*), INTENT(INOUT) :: STR
!/ ------------------------------------------------------------------- /
!/ Local parameters
!/
      INTEGER, PARAMETER :: ASCII_TAB = 9
      INTEGER :: SLEN
      INTEGER :: I
!       
      SLEN = LEN_TRIM(STR)

      DO I=1,SLEN
        IF(ICHAR(STR(I:I)) == ASCII_TAB) THEN
          STR(I:I) = ' '
        ENDIF
      ENDDO

      END SUBROUTINE NOTABS

!/ ------------------------------------------------------------------- /
      SUBROUTINE READ_META()
!/
!/                  +-----------------------------------+
!/                  | WAVEWATCH III           NOAA/NCEP |
!/                  |           C. Bunney               |
!/                  |                                   |
!/                  |                        FORTRAN 90 |
!/                  | Last update :         26-Jan-2021 |
!/                  +-----------------------------------+
!/
!/    09-Nov-2020 : Creation                            ( version 7.12 )
!/    26-Jan-2021 : Added TP and alternative dir/mag    ( version 7.12 ) 
!/                  metadata for directional fields.
!/
!
!  1. Purpose :
!
!     Reads meta data entries from the ountmeta.inp file and update
!     default values set via the DEFAULT_META subroutine.
!
!/ ------------------------------------------------------------------- /
      IMPLICIT NONE
!/ ------------------------------------------------------------------- /
!/ Local parameters
!/
      INTEGER ::  IERR, I, NDMI
      CHARACTER(LEN=256) :: BUF
      TYPE(META_T), POINTER :: PMETA
      CHARACTER(LEN=32) :: TEST, TESTU

      INTEGER :: IFI, IFJ, IFC
      INTEGER :: ILINE, MCNT
      !INTEGER :: MCNT
      LOGICAL :: EOF

      NDMI = 60
      ILINE = 0
      MCNT = 0

      OPEN(UNIT=NDMI, FILE=TRIM(FNMPRE)//TRIM(FN_META),                &
           STATUS="OLD", IOSTAT=IERR)

      IF(IERR .NE. 0) THEN
        WRITE(NDSE, 5010) TRIM(FNMPRE)//TRIM(FN_META), IERR
        CALL EXTCDE(10)
      ENDIF
    
      ! Loop over file, skipping comments or blank lines, until we find
      ! a META line.
      DO
        CALL NEXT_LINE(NDMI, BUF, ILINE, EOF)
        IF(EOF) EXIT !GOTO 500

        ! Read first token on line:
        READ(BUF, *) TEST

        ! A new meta-data section will start with the keyword "META"
        TESTU = TEST
        CALL STR_TO_UPPER(TESTU)
        IF(TESTU == "META") THEN
           MCNT = MCNT + 1
        
           IF(DEBUG) WRITE(*,'(I5,1X,A20,1X,A)') ILINE, '[META header]', TRIM(BUF)

           ! Get the IFI, IFJ, IFC values from the header:
           !I = INDEX(BUF,'META') + 4
           I = INDEX(BUF, TRIM(TEST)) + 4 ! Handles lower/mixed-case META keyword
           CALL DECODE_HEADER(BUF(I:), ILINE, IFI, IFJ, IFC)
           IF(IFI .EQ. -1) THEN
              WRITE(NDSE, 5011) TRIM(BUF(I:)), TRIM(FN_META), ILINE
              CALL EXTCDE(10)
           ENDIF

           ! IFI = 999 is a section for the "global" meta data 
           IF(IFI .EQ. 999) THEN
             CALL READ_GLOBAL_META(NDMI, ILINE)
             CYCLE
           ENDIF

           ! Error checking on size of IFJ, ICOMP, IPART.
          IF(IFI .LT. 1 .OR. IFI .GT. NOGRP) THEN
            WRITE(NDSE,5013) NOGRP, TRIM(FN_META), ILINE
            CALL EXTCDE(1)
          ENDIF
          IF(IFJ .LT. 1 .OR. IFJ .GT. NOGE(IFI)) THEN
            WRITE(NDSE,5014) NOGE(IFI), TRIM(FN_META), ILINE
            CALL EXTCDE(1)
          ENDIF
          IF(IFC .LT. 1 .OR. IFC .GT. 3) THEN
            WRITE(NDSE,5015) TRIM(FN_META), ILINE
            CALL EXTCDE(1)
          ENDIF
 
           ! Select correct variable metadata entry:
           PMETA => GROUP(IFI)%FIELD(IFJ)%META(IFC)
 
           ! Update the metadata with values from file:
           CALL READ_META_PAIRS(NDMI, PMETA, ILINE)
        ELSE
           ! Anything else is a syntax error
           WRITE(NDSE, 5012) TRIM(FN_META), ILINE, TRIM(BUF)
           CALL EXTCDE(10)
        ENDIF
      ENDDO
    
  !500 CONTINUE
      CLOSE(NDMI)
      WRITE(*, 5000) MCNT, N_GBLMETA
      RETURN
!
 5000 FORMAT(/' Read in: ',I3,' variable metadata entries' /          &
              '     and: ',I3,' global meta data entries' /)
!
 5010 FORMAT (/' *** WAVEWATCH III ERROR IN W3OUNFMETA : '/           &
               '     ERROR OPENING METADATA FILE'/                    &
               '     FILENAME = ', A /                                &
               '     IOSTAT =', I5 /)
!
 5011 FORMAT (/' *** WAVEWATCH III ERROR IN W3OUNFMETA : '/           &
               '     UNKNOWN FIELD ID: ',A /                          &
               '     FILENAME = ', A /                                &
               '     LINE =', I5 /)
!
 5012 FORMAT (/' *** WAVEWATCH III ERROR IN W3OUNFMETA : '/           &
               '     SYNTAX ERROR ' /                                 &
               '     FILENAME = ', A /                                &
               '     LINE =', I5 /                                    &
               '  => ', A /)
!
 5013 FORMAT (/' *** WAVEWATCH III ERROR IN W3OUNFMETA : ' /          &
               '     IFI value should be in range 1,',I2 /            &
               '     FILENAME = ', A /                                &
               '     LINE =', I5 /                                    &
               '  => ', A /)
!
 5014 FORMAT (/' *** WAVEWATCH III ERROR IN W3OUNFMETA : ' /          &
               '     IFJ value should be in range 1,',I2 /            &
               '     FILENAME = ', A /                                &
               '     LINE =', I5 /                                    &
               '  => ', A /)
!
 5015 FORMAT (/' *** WAVEWATCH III ERROR IN W3OUNFMETA : ' /          &
               '     IFC value should be in range 1,3' /              &
               '     FILENAME = ', A /                                &
               '     LINE =', I5 /                                    &
               '  => ', A /)
!
      END SUBROUTINE READ_META

!/ ------------------------------------------------------------------- /
      SUBROUTINE DECODE_HEADER(BUF, ILINE, IFI, IFJ, IFC)
!/
!/                  +-----------------------------------+
!/                  | WAVEWATCH III           NOAA/NCEP |
!/                  |           C. Bunney               |
!/                  |                                   |
!/                  |                        FORTRAN 90 |
!/                  | Last update :         09-Nov-2020 |
!/                  +-----------------------------------+
!/
!/    09-Nov-2020 : Creation                            ( version 7.12 )
!/
!
!  1. Purpose :
!
!     Decode the META header line.
!
!  2. Method:
!
!     The internal WW3 field can be specified either as an [IFI, IFJ]
!     integer combination, or a field ID tag (such as "HS").
!
!     Both forms can also specify an optional component (IFC) integer
!     value for multi-component fields (defaults to 1).
!
!     Field name ID tags are case-insensitive, HS == hs == Hs.
!
!  3. Parameters :
!
!     Parameter list
!     ----------------------------------------------------------------
!       BUF    Char.  I  Input header string (without leading META tag)
!       ILINE   Int.  I  Line number (for error reporting)            
!       IFI     Int.  O  Output group number
!       IFJ     Int.  O  Output field number
!       IFC     Int.  O  Component number (defaults to 1)
!     ----------------------------------------------------------------
!
!/ ------------------------------------------------------------------- /
      USE W3IOGOMD, ONLY: W3FLDTOIJ
      
      IMPLICIT NONE
 
      CHARACTER(*), INTENT(IN) :: BUF
      INTEGER, INTENT(IN) :: ILINE
      INTEGER, INTENT(OUT) :: IFI, IFJ, IFC
!/ ------------------------------------------------------------------- /
!/ Local parameters
!/
      INTEGER :: IERR
      CHARACTER(LEN=10) :: FLD
      
      IFI = 0
      IFJ = 1
      IFC = 1
      FLD = ''

      ! Is first value an int?
      READ(BUF, *, IOSTAT=IERR) IFI
      IF(IERR .EQ. 0) THEN
        ! Try reading 3 values:
        READ(BUF, *, iostat=IERR) IFI, IFJ, IFC
        IF(IERR .NE. 0) THEN
          ! Try just two values:
          READ(BUF, *, IOSTAt=IERR) IFI, IFJ
        ENDIF
      ELSE
        ! Try reading field ID plus component
        READ(BUF, *, IOSTAT=IERR) FLD, IFC
      
        IF(ierr .NE. 0) THEN
          ! Try just fldid
          READ(BUF, *, IOSTAT=IERR) FLD
        ENDIF
      ENDIF
      
      IF(IERR .NE. 0) THEN
        WRITE(NDSE, 6000) TRIM(FN_META), ILINE, TRIM(BUF)
        CALL EXTCDE(10)
      ENDIf

      CALL STR_TO_UPPER(FLD) ! field names are case insensitive

      ! If string value (FLDID), then decode into IFI,IFJ value:
      IF(FLD /= '') THEN
        ! Special case for "global" attributes
        IF(TRIM(FLD) == "GLOBAL") THEN
          IF(DEBUG) WRITE(*,'(6X,A20,1X,A)') '[GLOBAL meta sec.]', TRIM(BUF)
          IFI = 999  ! Marker for global section
        ELSE
          IF(DEBUG) WRITE(*,'(6X,A20,1X,A)') '[Decoding field ID]', TRIM(BUF)
          CALL W3FLDTOIJ(FLD, IFI, IFJ, 1, 1, 1)
        ENDIF
      ENDIF

      IF(DEBUG) WRITE(*,'(6X,A20,1X,3I2)') '[IFI, IFJ, IFC]', IFI,IFJ,IFC
!    
 6000 FORMAT (/' *** WAVEWATCH III ERROR IN W3OUNFMETA : '/           &
               '     SYNTAX ERROR IN SECTION HEADER. ' /              &
               '     FILENAME = ', A /                                &
               '     LINE NO =', I5 /                                 &
               '  => ', A /)
!
      END SUBROUTINE DECODE_HEADER
      
!/ ------------------------------------------------------------------- /
      SUBROUTINE READ_META_PAIRS(NDMI, META, ILINE)
!/
!/                  +-----------------------------------+
!/                  | WAVEWATCH III           NOAA/NCEP |
!/                  |           C. Bunney               |
!/                  |                                   |
!/                  |                        FORTRAN 90 |
!/                  | Last update :         09-Nov-2020 |
!/                  +-----------------------------------+
!/
!/    09-Nov-2020 : Creation                            ( version 7.12 )
!/
!
!  1. Purpose :
!
!     Reads in attribute name/value pairs and updates the relevant
!     values in the META type.
!
!  2. Method:
!
!     Keeps looping over input lines in file until next META section 
!     or EOF is found. Splits meta pairs on the = character.
!
!     Note - the "extra" metadata pair can also provide a variable
!     type ("c", "i", or "r"; for character, int or real respectively)
!
!  3. Parameters :
!
!     Parameter list
!     ----------------------------------------------------------------
!       NDMI      Int.   I  Unit number of metadata input file
!       META  Int.Ptr.   O  Pointer to META type
!       ILINE     Int. I/O  Current line number in file
!     ----------------------------------------------------------------
!
!/ ------------------------------------------------------------------- /
      IMPLICIT NONE
      INTEGER, INTENT(IN)               :: NDMI
      TYPE(META_T), INTENT(IN), POINTER :: META
      INTEGER, INTENT(INOUT)            :: ILINE
!/ ------------------------------------------------------------------- /
!/ Local parameters
!
      CHARACTER(LEN=256) :: BUF
      CHARACTER(LEN=128) :: ATTN, ATTV, TMP, EXTRA
      CHARACTER(LEN=16)  :: ATT_TYPE, TEST
      INTEGER            :: I, IERR
      REAL               :: R
      LOGICAL            :: EOF
!
      EXTRA = ''

      ! Keep reading lines until we hit EOF or anoter META keyword
      DO
        CALL NEXT_LINE(NDMI, BUF, ILINE, EOF)
        IF(EOF) THEN
          BACKSPACE(NDMI)
          RETURN
        ENDIF

        ! Read first token on line:
        READ(BUF, *) TEST

        CALL STR_TO_UPPER(TEST)
        IF(TEST == "META") THEN
          ! Start of new meta data entry
          IF(DEBUG) WRITE(*,'(I5,1X,A20)') ILINE, '[--end of section--]'
          ILINE = ILINE - 1
          BACKSPACE(NDMI)
          EXIT
        ENDIF

        IF(DEBUG) WRITE(*,'(I5,1X,A20,1X,A)') ILINE, '[META pair]', TRIM(BUF)
      
        ! Meta data should be formatted as "attr_name = attr_value"
        I = INDEX(BUF, "=")
        IF( I .LT. 1 ) THEN
          WRITE(NDSE, 7000) FN_META, ILINE, TRIM(BUF)
           CALL EXTCDE(10)
        ENDIF
      
        ATTN = ADJUSTL(BUF(1:I-1))
        ATTV = ADJUSTL(BUF(I+1:))

        ! Some compilers won't read an "empty" string unless quoted:
        IF(TRIM(ATTV) == '') THEN
           ATTV='""'
        ENDIF

        IERR = 0 
        SELECT CASE(TRIM(attn))
          ! Character variables
          ! Note: Using internal reads will allow the use of quote marks in strings
          CASE("varnm")
             READ(attv, *, IOSTAT=IERR) META%VARNM
      
          CASE("ename")
             READ(attv, *, IOSTAT=IERR) META%ENAME
        
          CASE("standard_name", "varns")
             READ(attv, *, IOSTAT=IERR) META%VARNS
      
          CASE("long_name", "varnl")
             READ(attv, *, IOSTAT=IERR) META%VARNL
      
          CASE("globwave_name", "varng")
             READ(attv, *, IOSTAT=IERR) META%VARNG
      
          CASE("direction_reference", "dir_ref", "varnd")
             READ(attv, *, IOSTAT=IERR) META%VARND
      
          CASE("comment", "varnc")
             READ(attv, *, IOSTAT=IERR) META%VARNC
      
          CASE("units")
             READ(attv, *, IOSTAT=IERR) META%UNITS
      
          ! Real variables
          CASE("valid_min", "vmin")
             READ(attv, *, IOSTAT=IERR) META%VMIN
      
          CASE("valid_max", "vmax")
             READ(attv, *, IOSTAT=IERR) META%VMAX
      
          CASE("scale_factor", "fsc")
             READ(attv, *, IOSTAT=IERR) META%FSC
      
          ! Default case will be the "extra" meta data variable
          CASE DEFAULT
             ! Check EXTRA attribute not already set
             IF(EXTRA /= '') THEN
               WRITE(NDSE, 7001) FN_META, ILINE, TRIM(BUF)
               CALL EXTCDE(10)
             ENDIF

             TMP = ATTV
             CALL GET_ATTVAL_TYPE(TMP, ILINE, ATTV, ATT_TYPE)

             IF(DEBUG) THEN
               WRITE(*,'(I5,1X,A20,1X,A)') ILINE, '[META extra]', &
                 TRIM(attn)//' = '//TRIM(attv)//' (type: '//TRIM(att_type)//")"
             ENDIF
 
             ! Set "extra" data
             META%EXTRA%ATTNAME = TRIM(attn)
             META%EXTRA%ATTVAL = TRIM(attv)
             META%EXTRA%TYPE = TRIM(att_type)

             EXTRA = ATTN

        END SELECT

        IF(IERR /= 0) THEN
          WRITE(NDSE, 7002) FN_META, ILINE, TRIM(BUF)
          CALL EXTCDE(10)
        ENDIF

      ENDDO
      
      RETURN
! 
 7000 FORMAT (/' *** WAVEWATCH III ERROR IN W3OUNFMETA : '/           &
               '     SYNTAX ERROR IN METADATA FILE ' /                &
               '     SHOULD BE "attr_name = attr_value" ' /           &
               '     FILENAME = ', A /                                &
               '     LINE NO =', I5 /                                 &
               '  => ', A /)
!
 7001 FORMAT (/' *** WAVEWATCH III ERROR IN W3OUNFMETA : '/           &
               '     "EXTRA" ATTRIBUTE ALREADY SET FOR VARIABLE' /    &
               '     FILENAME = ', A /                                &
               '     LINE NO =', I5 /                                 &
               '  => ', A /)
!
 7002 FORMAT (/' *** WAVEWATCH III ERROR IN W3OUNFMETA : '/           &
               '     IO ERROR READING ATTRIBUTE' /                    &
               '     FILENAME = ', A /                                &
               '     LINE NO =', I5 /                                 &
               '  => ', A /)
!
      END SUBROUTINE READ_META_PAIRS

!/ ------------------------------------------------------------------- /
      SUBROUTINE GET_ATTVAL_TYPE(BUF, ILINE, ATTV, ATT_TYPE)
!/
!/                  +-----------------------------------+
!/                  | WAVEWATCH III           NOAA/NCEP |
!/                  |           C. Bunney               |
!/                  |                                   |
!/                  |                        FORTRAN 90 |
!/                  | Last update :         09-Nov-2020 |
!/                  +-----------------------------------+
!/
!/    09-Nov-2020 : Creation                            ( version 7.12 )
!/
!
!  1. Purpose :
!
!     Gets the attribute value and optional variable type from
!     the passed in string.
!
!  2. Method:
!
!     If two freeform values can be read from the input string, it is
!     assumed to be a value and type, otherwise if only one value can
!     be read the type is assumed to be "character".
!
!     It is important to quote strings if they contain spaces.
!
!     Valid types are "c" "r/f", and "i" for character, real/float and
!     integer values. 

!  3. Parameters :
!
!     Parameter list
!     ----------------------------------------------------------------
!       BUF      Char.   I  Input string to process
!       ILINE    Int.    I  Line number (for error reporting)
!       ATTV     Char.   O  Attribute value
!       ATT_TYPE Char.   O  Attribute type
!     ----------------------------------------------------------------
!
!/ ------------------------------------------------------------------- /
      IMPLICIT NONE

      CHARACTER(*), INTENT(IN)  :: BUF
      INTEGER, INTENT(IN)       :: ILINE
      CHARACTER(*), INTENT(OUT) :: ATTV, ATT_TYPE
!/ ------------------------------------------------------------------- /
!/ Local parameters
!
      REAL :: R
      INTEGER :: I, IERR

      ! Get attribute and type (default to "c" if no type set)
      ATT_TYPE = 'c'
      ATTV = ''
      READ(BUF, *, IOSTAT=IERR) ATTV, ATT_TYPE
      IF(IERR /= 0) READ(BUF, *, IOSTAT=IERR) ATTV
 
      ! Check attr values are valid w.r.t. attr type
      SELECT CASE(TRIM(att_type))
        
        CASE("i")
           READ(attv, *, iostat=ierr) i
           IF(ierr .ne. 0) then
             WRITE(NDSE, 8001) "INTEGER", TRIM(FN_META), ILINE, TRIM(ATTV)
             CALL EXTCDE(10)
           ENDIF
        
        CASE("r", "f")
           READ(attv, *, iostat=ierr) r
           IF(ierr .ne. 0) THEN
             WRITE(NDSE, 8001) "REAL/FLOAT", TRIM(FN_META), ILINE, TRIM(ATTV)
             CALL EXTCDE(10)
           ENDIF
        
        CASE("c")
           ! Always ok.
        
        CASE DEFAULT
          WRITE(NDSE, 8002) TRIM(FN_META), ILINE, TRIM(BUF)
          CALL EXTCDE(10)
      
      END SELECT
!
 8001 FORMAT (/' *** WAVEWATCH III ERROR IN W3OUNFMETA : '/           &
               '     VALUE IS NOT A VALID ', A /                      &
               '     FILENAME = ', A /                                &
               '     LINE NO =', I5 /                                 &
               '  => ', A /)
!
 8002 FORMAT (/' *** WAVEWATCH III ERROR IN W3OUNFMETA : '/           &
               '     ATTRIBUTE TYPE SHOULD BE ONE OF [c,i,r] '/       & 
               '     FILENAME = ', A /                                &
               '     LINE NO =', I5 /                                 &
               '  => ', A /)
!
      END SUBROUTINE GET_ATTVAL_TYPE
      

!/ ------------------------------------------------------------------- /
      SUBROUTINE READ_GLOBAL_META(NDMI, ILINE)
!/
!/                  +-----------------------------------+
!/                  | WAVEWATCH III           NOAA/NCEP |
!/                  |           C. Bunney               |
!/                  |                                   |
!/                  |                        FORTRAN 90 |
!/                  | Last update :         09-Nov-2020 |
!/                  +-----------------------------------+
!/
!/    09-Nov-2020 : Creation                            ( version 7.12 )
!/
!
!  1. Purpose :
!
!     Reads in attribute name/value pairs for the "global" section.
!
!  2. Method:
!
!     Keeps looping over input lines in file until next META section 
!     or EOF is found. Splits meta pairs on the = character.
!
!     Global metadata pair can also provide a variable type 
!     ("c", "i", or "r"; for character, int or real respectively).
!     String values with spaces should be quoted.
!
!  3. Parameters :
!
!     Parameter list
!     ----------------------------------------------------------------
!       NDMI     Char.   I  Unit number of metadata input file
!       ILINE     Int. I/O  Current line number in file
!     ----------------------------------------------------------------
!
!/ ------------------------------------------------------------------- /
      IMPLICIT NONE
      INTEGER, INTENT(IN)               :: NDMI
      INTEGER, INTENT(INOUT)            :: ILINE
!/ ------------------------------------------------------------------- /
!/ Local parameters
!/
      CHARACTER(LEN=256) :: BUF
      CHARACTER(LEN=128) :: ATTN, ATTV, TMP, EXTRA
      CHARACTER(LEN=16)  :: ATT_TYPE, TEST
      INTEGER            :: I, IERR
      REAL               :: R
      LOGICAL            :: EOF
!
      ! Keep reading lines until we hit EOF or anoter META keyword
      DO
        CALL NEXT_LINE(NDMI, BUF, ILINE, EOF)
        IF(EOF) THEN
          BACKSPACE(NDMI)
          RETURN
        ENDIF

        ! Read first token on line:
        READ(BUF, *) TEST

        CALL STR_TO_UPPER(TEST)
        IF(TEST == "META") THEN
          ! Start of new meta data entry
          IF(DEBUG) WRITE(*,'(I5,1X,A20)') ILINE, '[--end of section--]'
          ILINE = ILINE - 1
          BACKSPACE(NDMI)
          EXIT
        ENDIF

        ! Split attr name/value pair
        I = INDEX(BUF, "=")
        IF( I .LT. 1 ) THEN
          WRITE(NDSE, 9000) TRIM(FN_META), ILINE, TRIM(BUF)
          CALL EXTCDE(10)
        ENDIF
      
        ATTN = ADJUSTL(BUF(1:I-1))
        TMP = ADJUSTL(BUF(I+1:))

        ! Get type, if set:
        CALL GET_ATTVAL_TYPE(TMP, ILINE, ATTV, ATT_TYPE)

        IF(DEBUG) THEN
          WRITE(*,'(I5,1X,A20,1X,A)') ILINE, '[GLOBAL meta]', &
            TRIM(attn)//' = '//TRIM(attv)//' (type: '//TRIM(att_type)//")"
        ENDIF

        N_GBLMETA = N_GBLMETA + 1
        GLOBAL_META(N_GBLMETA)%ATTNAME = TRIM(ATTN)
        GLOBAL_META(N_GBLMETA)%ATTVAL = TRIM(ATTV)
        GLOBAL_META(N_GBLMETA)%TYPE = TRIM(ATT_TYPE)

      ENDDO
!
 9000 FORMAT (/' *** WAVEWATCH III ERROR IN W3OUNFMETA : '/           &
               '     SYNTAX ERROR IN METADATA FILE ' /                &
               '     SHOULD BE "attr_name = attr_value" ' /           &
               '     FILENAME = ', A /                                &
               '     LINE NO =', I5 /                                 &
               '  => ', A /)
!
      END SUBROUTINE READ_GLOBAL_META

!/ ------------------------------------------------------------------- /
      FUNCTION GETMETA(IFI, IFJ, ICOMP, IPART) RESULT(META)
!/
!/                  +-----------------------------------+
!/                  | WAVEWATCH III           NOAA/NCEP |
!/                  |           C. Bunney               |
!/                  |                                   |
!/                  |                        FORTRAN 90 |
!/                  | Last update :         02-Nov-2020 |
!/                  +-----------------------------------+
!/
!/    09-Nov-2020 : Creation                            ( version 7.12 )
!/
!
!  1. Purpose :
!
!     Returns a META_T type containig the netCDF matadata for the 
!     requested field
!
!  2. Method :
!
!     A copy of the meta-data is returned, rather than a pointer. This
!     is because in the case of paritioned parameters, the metadata
!     will be updated with the partition number.
!
!  3. Parameters :
!
!     Parameter list
!     ----------------------------------------------------------------
!       IFI     Int.  I  Output group number
!       IFJ     Int.  I  Output field number
!       ICOMP   Int.  I  Component number (defaults to 1)
!       IPART   Int.  I  Partition number (defaults to 1)
!     ----------------------------------------------------------------
!
!/ ------------------------------------------------------------------- /
      IMPLICIT NONE
      INTEGER, INTENT(IN) :: IFI, IFJ
      INTEGER, INTENT(IN), OPTIONAL :: ICOMP, IPART
!/
!/ ------------------------------------------------------------------- /
!/ Local parameters
!/
      INTEGER :: IFP, IFC
      TYPE(META_T) :: META ! Not pointer as we might need to modify it
            
      IFC = 1
      IFP = 1
      IF(PRESENT(ICOMP)) IFC = ICOMP
      IF(PRESENT(IPART)) IFP = IPART

      ! Error checking on size of IFJ, ICOMP, IPART.
      IF(IFI .LT. 1 .OR. IFI .GT. NOGRP) THEN
        WRITE(NDSE,1000) NOGRP
        CALL EXTCDE(1)
      ENDIF
      IF(IFJ .LT. 1 .OR. IFJ .GT. NOGE(IFI)) THEN
        WRITE(NDSE,1001) NOGE(IFI)
        CALL EXTCDE(1)
      ENDIF
      IF(IFC .LT. 1 .OR. IFC .GT. 3) THEN
        WRITE(NDSE,1002)
        CALL EXTCDE(1)
      ENDIF

      META = GROUP(IFI)%FIELD(IFJ)%META(IFC)

      ! For partitioned data, expand in the partition number:
      IF(IFI .EQ. 4) THEN
        CALL ADD_PARTNO(META, IFP)
      ENDIF

      RETURN

 1000 FORMAT (/' *** WAVEWATCH III ERROR IN W3OUNFMETA : '            / &
               '     GETMETA: IFI value should be in range 1,',I2     / )
!
 1001 FORMAT (/' *** WAVEWATCH III ERROR IN W3OUNFMETA : '           / &
               '     GETMETA: IFJ value should be in range 1,',I2    / )
!               
 1002 FORMAT (/' *** WAVEWATCH III ERROR IN W3OUNFMETA : '           / &
               '     GETMETA: IFC value should be in range 1,3'      / )
!               
      END FUNCTION GETMETA

!/ ------------------------------------------------------------------- /
      SUBROUTINE ADD_PARTNO(META, IPART)
!/
!/                  +-----------------------------------+
!/                  | WAVEWATCH III           NOAA/NCEP |
!/                  |           C. Bunney               |
!/                  |                                   |
!/                  |                        FORTRAN 90 |
!/                  | Last update :         02-Nov-2020 |
!/                  +-----------------------------------+
!/
!/    09-Nov-2020 : Creation                            ( version 7.12 )
!/
!
!  1. Purpose :
!
!     Adds partition number to meta-data.
!
!  2. Method :
!
!     Replaces all instances of "<IPART>" in the provided meta data with
!     the partition number IPART.
!
!  3. Parameters :
!
!     Parameter list
!     ----------------------------------------------------------------
!       META  META_T  I  Meta data type
!       IPART   Int.  I  Partition number
!     ----------------------------------------------------------------
!
!/ ------------------------------------------------------------------- /
      IMPLICIT NONE
      TYPE(META_T), INTENT(INOUT) :: META
      INTEGER, INTENT(IN) :: IPART
!/
!/ ------------------------------------------------------------------- /
!/ Local parameters
!/
      CHARACTER(LEN=80) :: TMP
      INTEGER :: I, J

      CALL PARTNO_STRING_SUB(META%ENAME, IPART)
      CALL PARTNO_STRING_SUB(META%VARNM, IPART)
      CALL PARTNO_STRING_SUB(META%VARNL, IPART)
      CALL PARTNO_STRING_SUB(META%VARNS, IPART)
      CALL PARTNO_STRING_SUB(META%VARNG, IPART)
      CALL PARTNO_STRING_SUB(META%VARNC, IPART)
      CALL PARTNO_STRING_SUB(META%VARND, IPART)
      CALL PARTNO_STRING_SUB(META%EXTRA%ATTNAME, IPART)
      CALL PARTNO_STRING_SUB(META%EXTRA%ATTVAL, IPART)

      END SUBROUTINE ADD_PARTNO

!/ ------------------------------------------------------------------- /
      SUBROUTINE PARTNO_STRING_SUB(INSTR, IPART)
!/
!/                  +-----------------------------------+
!/                  | WAVEWATCH III           NOAA/NCEP |
!/                  |           C. Bunney               |
!/                  |                                   |
!/                  |                        FORTRAN 90 |
!/                  | Last update :         02-Nov-2020 |
!/                  +-----------------------------------+
!/
!/    09-Nov-2020 : Creation                            ( version 7.12 )
!/
!
!  1. Purpose :
!
!     Replaces occurancs of "<IPART>" in a string with the value provided
!     in IPART.
!
!  2. Parameters :
!
!     Parameter list
!     ----------------------------------------------------------------
!       INSTR  Char.  I/O  Input string
!       IPART   Int.  I    Partition number
!     ----------------------------------------------------------------
!
!/ ------------------------------------------------------------------- /
      IMPLICIT NONE

      CHARACTER(LEN=*), INTENT(INOUT) :: INSTR
      INTEGER, INTENT(IN) :: IPART
!/
!/ ------------------------------------------------------------------- /
!/ Local parameters
!/
      INTEGER :: I, J

      I = INDEX(INSTR, "<IPART>")
      J = I + LEN_TRIM("<IPART>")
      IF(I .GT. 0) THEN
        WRITE(INSTR,'(A,I1,A)') INSTR(1:I-1), IPART, INSTR(J:LEN(INSTR))
      ENDIF

      END SUBROUTINE PARTNO_STRING_SUB

!/ ------------------------------------------------------------------- /
      SUBROUTINE WRITE_META(NCID, VARID, META, ERR)
!/
!/                  +-----------------------------------+
!/                  | WAVEWATCH III           NOAA/NCEP |
!/                  |           C. Bunney               |
!/                  |                                   |
!/                  |                        FORTRAN 90 |
!/                  | Last update :         02-Nov-2020 |
!/                  +-----------------------------------+
!/
!/    09-Nov-2020 : Creation                            ( version 7.12 )
!/
!
!  1. Purpose :
!
!     Writes the meta-data entries for a variable.
!
!  2. Parameters :
!
!     Parameter list
!     ----------------------------------------------------------------
!       NCID    Int.  I/O  NetCDF file ID
!       VARID   Int.  I/O  NetCDF variable ID
!       META    Int.  I    Meta data type
!       ERR     Int.  O    Error value
!     ----------------------------------------------------------------
!
!/ ------------------------------------------------------------------- /
      IMPLICIT NONE

      INTEGER, INTENT(IN) :: NCID, VARID
      TYPE(META_T), INTENT(IN) :: META
      INTEGER, INTENT(OUT) :: ERR
!/
!/ ------------------------------------------------------------------- /
!/ Local parameters
!/
      INTEGER :: IVAL, VAL
      REAL :: RVAL
!/
      ERR = NF90_PUT_ATT(NCID, VARID, 'long_name', META%VARNL)
      IF(ERR /= NF90_NOERR) RETURN
      
      ERR = NF90_PUT_ATT(NCID, VARID, 'standard_name', META%VARNS)
      IF(ERR /= NF90_NOERR) RETURN
      
      IF(META%VARNG .NE. '' .AND. META%VARNG .NE. UNSETC) THEN
        ERR = NF90_PUT_ATT(NCID, VARID, 'globwave_name', META%VARNG)
        IF(ERR /= NF90_NOERR) RETURN
      ENDIF
      
      ERR = NF90_PUT_ATT(NCID, VARID, 'units', META%UNITS)
      IF(ERR /= NF90_NOERR) RETURN

      ! Fill value dependent on variable type
      IF(NCVARTYPE .EQ. 2) THEN 
        ERR = NF90_PUT_ATT(NCID, VARID, '_FillValue', NF90_FILL_SHORT)
      ELSE 
        ERR = NF90_PUT_ATT(NCID, VARID, '_FillValue', NF90_FILL_FLOAT)
      END IF
      IF(ERR /= NF90_NOERR) RETURN

      ERR = NF90_PUT_ATT(NCID, VARID, 'scale_factor', META%FSC)
      IF(ERR /= NF90_NOERR) RETURN
      
      ERR = NF90_PUT_ATT(NCID, VARID, 'add_offset', 0.)
      IF(ERR /= NF90_NOERR) RETURN
      
      ! For variables with vartype SHORT, the valid min/max
      ! are scaled by scale_factor and converted to integers.
      ! If vartype is FLOAT, then no scaling is performed and
      ! valid min/max are written out directly as floats.
      IF(NCVARTYPE .EQ. 2) THEN
        VAL = NINT(META%VMIN / META%FSC)
        ERR = NF90_PUT_ATT(NCID, VARID,'valid_min', VAL)
        IF(ERR /= NF90_NOERR) RETURN

        VAL = NINT(META%VMAX / META%FSC)
        ERR = NF90_PUT_ATT(NCID, VARID,'valid_max', VAL)
        IF(ERR /= NF90_NOERR) RETURN
      ELSE
        ERR = NF90_PUT_ATT(NCID, VARID,'valid_min', META%VMIN)
        IF(ERR /= NF90_NOERR) RETURN
        
        ERR = NF90_PUT_ATT(NCID, VARID,'valid_max', META%VMAX)
        IF(ERR /= NF90_NOERR) RETURN
      ENDIF
      
      IF(META%VARNC .NE. '' .AND. META%VARNC .NE. UNSETC) THEN
        ERR = NF90_PUT_ATT(NCID, VARID, 'comment', META%VARNC)
        IF(ERR /= NF90_NOERR) RETURN
      ENDIF
      
      IF (META%VARND .NE. '' .AND. META%VARND .NE. UNSETC) THEN
        ERR = NF90_PUT_ATT(NCID, VARID, 'direction_reference', META%VARND)
        IF(ERR /= NF90_NOERR) RETURN
      END IF
      
      IF (META%EXTRA%ATTNAME .NE. '' .AND.                           &
            META%EXTRA%ATTNAME .NE. UNSETC) THEN

        SELECT CASE(META%EXTRA%TYPE)
          
          CASE('i')
            READ(META%EXTRA%ATTVAL, *) IVAL
            ERR = NF90_PUT_ATT(NCID, VARID, META%EXTRA%ATTNAME, IVAL)
            IF(ERR /= NF90_NOERR) RETURN
          
          CASE('r', 'f')
            READ(META%EXTRA%ATTVAL, *) RVAL
            ERR = NF90_PUT_ATT(NCID, VARID, META%EXTRA%ATTNAME, RVAL)
            IF(ERR /= NF90_NOERR) RETURN
          
          CASE('c')
            ERR = NF90_PUT_ATT(NCID, VARID, META%EXTRA%ATTNAME,    &
                    META%EXTRA%ATTVAL)
            IF(ERR /= NF90_NOERR) RETURN
          
          CASE DEFAULT
            WRITE(1000,*) META%EXTRA%TYPE
            CALL EXTCDE(10)
        END SELECT
      ENDIF

      RETURN
!
 1000 FORMAT (/' *** WAVEWATCH III ERROR IN W3OUNFMETA : '            / &
               '     WRITEMETA: Unknown meta data type: ', A1         / )
!
      END SUBROUTINE WRITE_META

!/ ------------------------------------------------------------------- /
      SUBROUTINE WRITE_GLOBAL_META(NCID, ERR)
!/
!/                  +-----------------------------------+
!/                  | WAVEWATCH III           NOAA/NCEP |
!/                  |           C. Bunney               |
!/                  |                                   |
!/                  |                        FORTRAN 90 |
!/                  | Last update :         09-Nov-2020 |
!/                  +-----------------------------------+
!/
!/    09-Nov-2020 : Creation                            ( version 7.12 )
!/
!
!  1. Purpose :
!
!     Writes the user meta-data entries for the global attributes
!
!  2. Parameters :
!
!     Parameter list
!     ----------------------------------------------------------------
!       NCID    Int.  I/O  NetCDF file ID
!       ERR     Int.  O    Error value
!     ----------------------------------------------------------------
!
!/ ------------------------------------------------------------------- /
      IMPLICIT NONE

      INTEGER, INTENT(IN) :: NCID
      INTEGER, INTENT(OUT) :: ERR
!/
!/ ------------------------------------------------------------------- /
!/ Local parameters
!/
      INTEGER :: VARID = NF90_GLOBAL
      INTEGER :: I, IVAL
      REAL    :: RVAL

         ! Loop over global metadata pairs:
      DO I=1,N_GBLMETA

        IF (GLOBAL_META(I)%ATTNAME .EQ. '' .OR.                      &
              GLOBAL_META(I)%ATTNAME .EQ. UNSETC) CYCLE

        SELECT CASE(GLOBAL_META(I)%TYPE)

          CASE('i')
            READ(GLOBAL_META(I)%ATTVAL, *) IVAL
            ERR = NF90_PUT_ATT(NCID, VARID, GLOBAL_META(I)%ATTNAME, IVAL)
            IF(ERR /= NF90_NOERR) RETURN

          CASE('r', 'f')
            READ(GLOBAL_META(I)%ATTVAL, *) RVAL
            ERR = NF90_PUT_ATT(NCID, VARID, GLOBAL_META(I)%ATTNAME, RVAL)
            IF(ERR /= NF90_NOERR) RETURN

          CASE('c')
            ERR = NF90_PUT_ATT(NCID, VARID, GLOBAL_META(I)%ATTNAME,    &
                    GLOBAL_META(I)%ATTVAL)
            IF(ERR /= NF90_NOERR) RETURN

          CASE DEFAULT
            WRITE(1000,*) GLOBAL_META(I)%TYPE
            CALL EXTCDE(10)
        END SELECT
      ENDDO
!
  1000 FORMAT (/' *** WAVEWATCH III ERROR IN W3OUNFMETA : '            / &
                '     WRITEMETA: Unknown meta data type: ', A1         / )
!
      END SUBROUTINE WRITE_GLOBAL_META
    
!/ ------------------------------------------------------------------- /
      SUBROUTINE PRINT_META(META)
!/
!/                  +-----------------------------------+
!/                  | WAVEWATCH III           NOAA/NCEP |
!/                  |           C. Bunney               |
!/                  |                                   |
!/                  |                        FORTRAN 90 |
!/                  | Last update :         02-Nov-2020 |
!/                  +-----------------------------------+
!/
!/    09-Nov-2020 : Creation                            ( version 7.12 )
!/
!
!  1. Purpose :
!
!     Writes meta-data to the screen - for debugging purposes.
!
!  2. Parameters :
!
!     Parameter list
!     ----------------------------------------------------------------
!       VARID   Int.  I/O  NetCDF variable ID
!     ----------------------------------------------------------------
!
!/ ------------------------------------------------------------------- /
      IMPLICIT NONE
      TYPE(META_T), INTENT(IN) :: META

      WRITE(*,*) META%VARNM
      WRITE(*,"(A20,':',1X,A)") "Standard name", TRIM(META%VARNS)
      WRITE(*,"(A20,':',1X,A)") "Long name", TRIM(META%VARNL)
      WRITE(*,"(A20,':',1X,A)") "Units", TRIM(META%UNITS)
      WRITE(*,"(A20,':',1X,A)") "GLOBWAVE name", TRIM(META%VARNG)
      WRITE(*,"(A20,':',1X,A)") "Direction conv", TRIM(META%VARND)
      WRITE(*,"(A20,':',1X,A)") "Comment", TRIM(META%VARNC)
      WRITE(*,"(A20,':',1X,2F12.3)") "Min/Max", META%VMIN, META%VMAX
      WRITE(*,"(A20,':')") "Extra metadata"
      WRITE(*,"(2X,A20,':',1X,'[',A1,']')") "Type", META%EXTRA%TYPE
      WRITE(*,"(2X,A20,':',1X,A)") TRIM(META%EXTRA%ATTNAME), TRIM(META%EXTRA%ATTNAME)

      END SUBROUTINE PRINT_META

!/ ------------------------------------------------------------------- /
      SUBROUTINE DEFAULT_META()
!/
!/                  +-----------------------------------+
!/                  | WAVEWATCH III           NOAA/NCEP |
!/                  |           C. Bunney               |
!/                  |                                   |
!/                  |                        FORTRAN 90 |
!/                  | Last update :         02-Nov-2020 |
!/                  +-----------------------------------+
!/
!/    02-Nov-2020 : Creation                            ( version 7.12 )
!/
!
!  1. Purpose :
!
!     Populates the default meta data for ww3_ounf.
!
!  2. Remarks :
!
!     VMIN and VMAX are now set in the units of the output field.
!     Previously, they were set with scaled values based on the scaling
!     factor FSC. The scaling is now performed (if necessary) in the
!     WRITE_META subroutine.
!
!     FSC (scale factor) is only applied to data and valid_min/max if
!     the netCDF variable type is NF90_SHORT.
!
!/ ------------------------------------------------------------------- /
      IMPLICIT NONE
      TYPE(META_T), POINTER :: META(:)
!
!----------GROUP 1 ----------------
!
! IFI=1, IFJ=1
      META => GROUP(1)%FIELD(1)%META
      META(1)%FSC    = 0.5
      META(1)%UNITS  = 'm'
      META(1)%ENAME  = '.dpt'
      META(1)%VARNM = 'dpt'
      META(1)%VARNL ='depth'
      META(1)%VARNS ='depth'
      META(1)%VARNG ='depth'
      META(1)%VARNC =''
      META(1)%VARND =''
      META(1)%VMIN = -45000 
      META(1)%VMAX = 70000
! IFI=1, IFJ=2        
      META => GROUP(1)%FIELD(2)%META
      META(1)%ENAME  = '.cur'
      IF(VECTOR) THEN
        META(1)%FSC    = 0.01
        META(1)%UNITS  = 'm s-1'
        META(1)%VMIN = -9.9
        META(1)%VMAX =  9.9
        META(1)%VARNM='ucur'
        META(1)%VARNL='eastward current'
        META(1)%VARNS='eastward_sea_water_velocity'
        META(1)%VARNG='eastward_sea_water_velocity'
        META(1)%VARNC='cur=sqrt(U**2+V**2)'
        META(1)%VARND = DIRCOM
        
        ! Second component
        META(2) = META(1)
        META(2)%VARNM='vcur'
        META(2)%VARNL='northward current'
        META(2)%VARNS='northward_sea_water_velocity'
        META(2)%VARNG='northward_sea_water_velocity'
        META(2)%VARNC='cur=sqrt(U**2+V**2)'
      ELSE
        META(1)%FSC    = 0.01
        META(1)%UNITS  = 'm s-1'
        META(1)%VMIN = 0
        META(1)%VMAX = 10.0
        META(1)%VARNM='cspd'
        META(1)%VARNL='current speed'
        META(1)%VARNS='sea_water_speed'
        META(1)%VARNG='sea_water_speed'
  
        ! Second component
        META(2) = META(1)
        META(2)%FSC = 0.1
        META(2)%VARNM='cdir'
        META(2)%UNITS= 'degrees'
        META(2)%VARNL='current direction (toward)'
        META(2)%VARNS='direction_of_sea_water_velocity'
        META(2)%VARNG='direction_of_sea_water_velocity'
        META(2)%VMIN = 0
        META(2)%VMAX = 360.0
      ENDIF ! VECTOR
! IFI=1, IFJ=3         
      META => GROUP(1)%FIELD(3)%META
      META(1)%ENAME  = '.wnd'
      IF(VECTOR) THEN
        META(1)%FSC    = 0.1
        META(1)%UNITS  = 'm s-1'
        META(1)%VARNM='uwnd'
        META(1)%VARNL='eastward_wind'
        META(1)%VARNS='eastward_wind'
        META(1)%VARNG='eastward_wind'
        META(1)%VARNC='wind=sqrt(U10**2+V10**2)'
        META(1)%VMIN = -99.0
        META(1)%VMAX =  99.0
        META(1)%VARND = DIRCOM
  
        ! Second component
        META(2) = META(1)
        META(2)%VARNM='vwnd'
        META(2)%VARNL='northward_wind'
        META(2)%VARNS='northward_wind'
        META(2)%VARNG='northward_wind'
        META(2)%VARNC='wind=sqrt(U10**2+V10**2)'
      ELSE
        META(1)%FSC = 0.01
        META(1)%UNITS= 'm s-1'
        META(1)%VARNM='wspd'
        META(1)%VARNL='wind speed'
        META(1)%VARNS='wind_speed'
        META(1)%VARNG='wind_speed'
        META(1)%VMIN = 0.0
        META(1)%VMAX = 100.0

        ! Second component
        META(2) = META(1)
        META(2)%FSC = 0.1
        META(2)%VARNM='wdir'
        META(2)%UNITS='degrees'
        META(2)%VARNL='wind direction (from)'
        META(2)%VARNS='wind_from_direction'
        META(2)%VARNG='wind_from_direction'
        META(2)%VMIN = 0.0
        META(2)%VMAX = 360.0
      ENDIF ! VECTOR
! IFI=1, IFJ=4
      META => GROUP(1)%FIELD(4)%META
      META(1)%FSC    = 0.1
      META(1)%ENAME = '.ast'
      META(1)%UNITS = 'K'
      META(1)%VARNM='ast'
      META(1)%VARNL='air sea temperature difference'
      META(1)%VARNS='air_sea_temperature_difference'
      META(1)%VARNG='air_sea_temperature_difference'
      META(1)%VMIN = 0    
      META(1)%VMAX = 400
! IFI=1, IFJ=5
      META => GROUP(1)%FIELD(5)%META
      META(1)%FSC    = 0.01
      META(1)%UNITS  = 'm'
      META(1)%ENAME  = '.wlv'
      META(1)%VARNM='wlv'
      META(1)%VARNL='sea surface height above sea level'
      META(1)%VARNS='sea_surface_height_above_sea_level'
      META(1)%VARNG='sea_surface_height_above_sea_level'
      META(1)%VMIN = 0 
      META(1)%VMAX = 100
! IFI=1, IFJ=6
      META => GROUP(1)%FIELD(6)%META
      META(1)%FSC    = 0.001
      META(1)%UNITS  = '1'
      META(1)%ENAME  = '.ice'
      META(1)%VARNM='ice'
      META(1)%VARNL='sea ice area fraction'
      META(1)%VARNS='sea_ice_area_fraction'
      META(1)%VARNG='sea_ice_area_fraction'
      META(1)%VMIN = 0
      META(1)%VMAX = 1
! IFI=1, IFJ=7
      META => GROUP(1)%FIELD(7)%META
      META(1)%FSC    = 0.0001
      META(1)%UNITS  = 'km-1'
      META(1)%ENAME  = '.ibg'
      META(1)%VARNM='ibg'
      META(1)%VARNL='icebergs_damping'
      META(1)%VARNS='icebergs_induced_attenuation_scale_for_waves'
      META(1)%VARNG='icebergs_damping'
      META(1)%VMIN = 0
      META(1)%VMAX = 3.2
! IFI=1, IFJ=8
!/BT4      META => GROUP(1)%FIELD(8)%META
!/BT4      META(1)%FSC    = 0.001
!/BT4      META(1)%UNITS  = 'Krumbein phi scale'
!/BT4      META(1)%ENAME  = '.d50'
!/BT4      META(1)%VARNM='d50'
!/BT4      META(1)%VARNL='grain_size'
!/BT4      META(1)%VARNS='sediment_grain_size'
!/BT4      META(1)%VARNG='sediment_grain_size'
!/BT4      META(1)%VMIN = -10.0
!/BT4      META(1)%VMAX = 32.0
! IFI=1, IFJ=9
!/IS2      META => GROUP(1)%FIELD(9)%META
!/IS2      META(1)%FSC = 0.001
!/IS2      META(1)%UNITS = 'm'
!/IS2      META(1)%ENAME = '.ic1'
!/IS2      META(1)%VARNM='ic1'
!/IS2      META(1)%VARNL='ice thickness'
!/IS2      META(1)%VARNS='ice_thickness'
!/IS2      META(1)%VARNG='ice_thickness'
!/IS2      META(1)%VMIN = 0
!/IS2      META(1)%VMAX = 30
! IFI=1, IFJ=10
!/IS2      META => GROUP(1)%FIELD(10)%META
!/IS2      META(1)%FSC = 0.05
!/IS2      META(1)%UNITS = 'm'
!/IS2      META(1)%ENAME = '.ic5'
!/IS2      META(1)%VARNM='ic5'
!/IS2      META(1)%VARNL='maximum floe diameter'
!/IS2      META(1)%VARNS='maximum_ice_floe_diameter'
!/IS2      META(1)%VARNG='maximum_ice_floe_diameter'
!/IS2      META(1)%VMIN = 0
!/IS2      META(1)%VMAX = 1500
!
!----------GROUP 2 ----------------
!
! IFI=2, IFJ=1
      META => GROUP(2)%FIELD(1)%META
      META(1)%FSC    = 0.002
      META(1)%UNITS  = 'm'
      META(1)%ENAME  = '.hs'
      META(1)%VARNM='hs'
      META(1)%VARNL='significant height of wind and swell waves'
      META(1)%VARNS='sea_surface_wave_significant_height' 
      META(1)%VARNG='significant_wave_height'
      META(1)%VMIN = 0 
      META(1)%VMAX = 64
! IFI=2, IFJ=2
      META => GROUP(2)%FIELD(2)%META
      META(1)%FSC    = 1.
      META(1)%UNITS  = 'm'
      META(1)%ENAME  = '.lm'
      META(1)%VARNM='lm'
      META(1)%VARNL='mean wave length'
      META(1)%VARNS='mean_wave_length' 
      META(1)%VARNG='mean_wave_length' 
      META(1)%VMIN = 0 
      META(1)%VMAX = 3200
! IFI=2, IFJ=3
      META => GROUP(2)%FIELD(3)%META
      META(1)%FSC    = 0.01
      META(1)%UNITS  = 's'
      META(1)%ENAME  = '.t02'
      META(1)%VARNM='t02'
      META(1)%VARNL='mean period T02'
      META(1)%VARNS='sea_surface_wind_wave_mean_period' // &
      '_from_variance_spectral_density_second_frequency_moment'
      META(1)%VARNG='mean_period_t02'
      META(1)%VMIN = 0
      META(1)%VMAX = 50
! IFI=2, IFJ=4
      META => GROUP(2)%FIELD(4)%META
      META(1)%FSC    = 0.01
      META(1)%UNITS  = 's'
      META(1)%ENAME  = '.t0m1'
      META(1)%VARNM='t0m1'
      META(1)%VARNL='mean period T0m1'
      META(1)%VARNS='sea_surface_wind_wave_mean_period_from_variance' // &
                 '_spectral_density_inverse_frequency_moment'
      META(1)%VARNG='mean_period_t0m1'
      META(1)%VMIN = 0 
      META(1)%VMAX = 50
! IFI=2, IFJ=5
      META => GROUP(2)%FIELD(5)%META
      META(1)%FSC    = 0.01
      META(1)%UNITS  = 's'
      META(1)%ENAME  = '.t01'
      META(1)%VARNM='t01'
      META(1)%VARNL='mean period T01'
      META(1)%VARNS='sea_surface_wind_wave_mean_period_from_variance' // &
                '_spectral_density_first_frequency_moment' 
      META(1)%VARNG='mean_period_t01'
      META(1)%VMIN = 0
      META(1)%VMAX = 50
! IFI=2, IFJ=6
      META => GROUP(2)%FIELD(6)%META
      META(1)%FSC    = 0.001
      META(1)%UNITS  = 's-1'
      META(1)%ENAME  = '.fp'
      META(1)%VARNM='fp'
      META(1)%VARNL='wave peak frequency'
      META(1)%VARNS='sea_surface_wave_peak_frequency'
      META(1)%VARNG='dominant_wave_frequency'
      META(1)%VMIN = 0 
      META(1)%VMAX = 10
! IFI=2, IFJ=7
      META => GROUP(2)%FIELD(7)%META
      META(1)%FSC    = 0.1
      META(1)%UNITS  = 'degree'
      META(1)%ENAME  = '.dir'
      META(1)%VARNM='dir'
      META(1)%VARNL='wave mean direction'
      META(1)%VARNS='sea_surface_wave_from_direction'
      META(1)%VARNG='wave_from_direction'
      META(1)%VARND=DIRCOM
      META(1)%VMIN = 0
      META(1)%VMAX = 360
! IFI=2, IFJ=8
      META => GROUP(2)%FIELD(8)%META
      META(1)%FSC    = 0.1
      META(1)%UNITS  = 'degree'
      META(1)%ENAME  = '.spr'
      META(1)%VARNM='spr'
      META(1)%VARNL='directional spread'
      META(1)%VARNS='sea_surface_wave_directional_spread'
      META(1)%VARNG='directional_spread'
      META(1)%VMIN = 0
      META(1)%VMAX = 90
! IFI=2, IFJ=9
      META => GROUP(2)%FIELD(9)%META
      META(1)%FSC    = 1.
      META(1)%UNITS  = 'degree'
      META(1)%ENAME  = '.dp'
      META(1)%VARNM='dp'
      META(1)%VARNL='peak direction'
      META(1)%VARNS='sea_surface_wave_peak_direction'
      META(1)%VARNG='dominant_wave_direction'
      META(1)%VARND=DIRCOM
      META(1)%VMIN = 0 
      META(1)%VMAX = 360
! IFI=2, IFJ=10
      META => GROUP(2)%FIELD(10)%META
      META(1)%FSC    = 0.0002
      META(1)%UNITS  = 'm'
      META(1)%ENAME  = '.hig'
      META(1)%VARNM='hig'
      META(1)%VARNL='infragravity_wave_height'
      META(1)%VARNS='sea_surface_wave_infragravity_significant_height' 
      META(1)%VARNG='infragravity_significant_wave_height' 
      META(1)%VMIN = 0 
      META(1)%VMAX = 1.0
! IFI=2, IFJ=11
      META => GROUP(2)%FIELD(11)%META
      META(1)%FSC    = 0.002
      META(1)%UNITS  = 'm'
      META(1)%ENAME  = '.mxe'
      META(1)%VARNM='stmaxe'
      META(1)%VARNL='expected maximum sea surface elevation (nonlinear,2nd order)'
      META(1)%VARNS='expected maximum sea surface elevation (nonlinear,2nd order)'
      META(1)%VARNG='expected maximum sea surface elevation (nonlinear,2nd order)'
      META(1)%VMIN = 0
      META(1)%VMAX = 64
! IFI=2, IFJ=12
      META => GROUP(2)%FIELD(12)%META
      META(1)%FSC    = 0.002
      META(1)%UNITS  = 'm'
      META(1)%ENAME  = '.mxes'
      META(1)%VARNM='stmaxd'
      META(1)%VARNL='standard deviation of maximum sea surface elevation (nonlinear,2nd order)'
      META(1)%VARNS='std of expected maximum sea surface elevation (nonlinear,2nd order)'
      META(1)%VARNG='standard deviation of maximum sea surface elevation (nonlinear,2nd order)'
      META(1)%VMIN = 0
      META(1)%VMAX = 64
! IFI=2, IFJ=13
      META => GROUP(2)%FIELD(13)%META
      META(1)%FSC    = 0.002
      META(1)%UNITS  = 'm'
      META(1)%ENAME  = '.mxh'
      META(1)%VARNM='hmaxe'
      META(1)%VARNL='expected maximum wave height (linear, 1st order)'
      META(1)%VARNS='expected maximum wave height (linear, 1st order)'
      META(1)%VARNG='expected maximum wave height (linear, 1st order)'
      META(1)%VMIN = 0
      META(1)%VMAX = 64
! IFI=2, IFJ=14
      META => GROUP(2)%FIELD(14)%META
      META(1)%FSC    = 0.002
      META(1)%UNITS  = 'm'
      META(1)%ENAME  = '.mxhc'
      META(1)%VARNM='hcmaxe'
      META(1)%VARNL='expected maximum wave height from crest (linear, 1st order)'
      META(1)%VARNS='expected maximum wave height from crest (linear, 1st order)'
      META(1)%VARNG='expected maximum wave height from crest (linear, 1st order)'
      META(1)%VMIN = 0
      META(1)%VMAX = 64
! IFI=2, IFJ=15
      META => GROUP(2)%FIELD(15)%META
      META(1)%FSC    = 0.002
      META(1)%UNITS  = 'm'
      META(1)%ENAME  = '.sdmh'
      META(1)%VARNM='hmaxd'
      META(1)%VARNL='STD of maximum wave height (linear, 1st order)'
      META(1)%VARNS='STD of maximum wave height (linear, 1st order)'
      META(1)%VARNG='STD of maximum wave height (linear, 1st order)'
      META(1)%VMIN = 0
      META(1)%VMAX = 64
! IFI=2, IFJ=16
      META => GROUP(2)%FIELD(16)%META
      META(1)%FSC    = 0.002
      META(1)%UNITS  = 'm'
      META(1)%ENAME  = '.sdmhc'
      META(1)%VARNM='hcmaxd'
      META(1)%VARNL='STD of maximum wave height from crest (linear, 1st order)'
      META(1)%VARNS='STD of maximum wave height from crest (linear, 1st order)'
      META(1)%VARNG='STD of maximum wave height from crest (linear, 1st order)'
      META(1)%VMIN = 0
      META(1)%VMAX = 64
! IFI=2, IFJ=17
      META => GROUP(2)%FIELD(17)%META
      META(1)%FSC    = 0.001
      META(1)%UNITS  = '1'
      META(1)%ENAME  = '.wbt'
      META(1)%VARNM='wbt'
      META(1)%VARNL='dominant wave breaking probability'
      META(1)%VARNS='dominant_wave_breaking_probability'
      META(1)%VARNG='dominant_wave_breaking_probability'
      META(1)%VMIN = 0
      META(1)%VMAX = 1
! IFI=2, IFJ=18, TP
      META => GROUP(2)%FIELD(18)%META
      META(1)%FSC    = 0.01
      META(1)%UNITS  = 's'
      META(1)%ENAME  = '.tp'
      META(1)%VARNM='tp'
      META(1)%VARNL='wave peak period'
      META(1)%VARNS='sea_surface_wave_peak_period'
      META(1)%VARNG='dominant_wave_period'
      META(1)%VMIN = 0
      META(1)%VMAX = 50
!
!---------- GROUP 3 ----------------
!
! IFI=3, IFJ=1
      META => GROUP(3)%FIELD(1)%META
      META(1)%VARNM='ef'
      META(1)%VARNL='wave_elevation_spectrum'
      IF (NCVARTYPE.LE.3) THEN 
        META(1)%UNITS  = 'log10(m2 s+1E-12)'
        META(1)%VARNS='base_ten_logarithm_of_power_spectral_density_of_surface_elevation'
        META(1)%FSC     = 0.0004
      ELSE
        META(1)%UNITS  = 'm2 s'
        META(1)%VARNS='power_spectral_density_of_surface_elevation'
        META(1)%FSC     = 1.
      END IF
      META(1)%ENAME  = '.ef'
      META(1)%VARNG = META(1)%VARNS
      META(1)%VMIN = -12
      META(1)%VMAX = -12.8
! IFI=3, IFJ=2
      META => GROUP(3)%FIELD(2)%META
      ! Information for spectral
      META(1)%FSC     = 0.1
      META(1)%VARNM='th1m'
      META(1)%VARNL='mean wave direction frequency spectrum'
      META(1)%VARNS='sea_surface_wave_from_direction_frequency_spectrum'
      META(1)%VARNG = META(1)%VARNS
      META(1)%VARND=DIRCOM
      META(1)%UNITS  = 'degree'
      META(1)%ENAME  = '.th1m'
      META(1)%VMIN = 0 
      META(1)%VMAX = 360
! IFI=3, IFJ=3
      META => GROUP(3)%FIELD(3)%META
      ! Information for spectral
      META(1)%FSC     = 0.01
      META(1)%VARNM='sth1m'
      META(1)%VARNL='spreading frequency spectrum'
      META(1)%VARNS='sea_surface_wave_spreading_spectrum'
      META(1)%VARNG = META(1)%VARNS
      META(1)%UNITS  = 'degree'
      META(1)%ENAME  = '.sth1m'
      META(1)%VMIN = 0 
      META(1)%VMAX = 90
! IFI=3, IFJ=4
      META => GROUP(3)%FIELD(4)%META
      META(1)%FSC     = 0.1
      META(1)%VARNM='th2m'
      META(1)%VARNL='second mean wave direction frequency spectrum'
      META(1)%VARNS='sea_surface_wave_from_direction_frequency_spectrum_from_second_moments'
      META(1)%VARNG = META(1)%VARNS
      META(1)%VARND=DIRCOM
      META(1)%UNITS  = 'degree'
      META(1)%ENAME  = '.th2m'
      META(1)%VMIN = 0 
      META(1)%VMAX = 360
! IFI=3, IFJ=5
      META => GROUP(3)%FIELD(5)%META
      META(1)%FSC     = 0.01
      META(1)%VARNM='sth2m'
      META(1)%VARNL='second spreading frequency spectrum'
      META(1)%VARNS='sea_surface_wave_spreading_spectrum_from_second_moments'
      META(1)%VARNG = META(1)%VARNS
      META(1)%UNITS  = 'degree'
      META(1)%ENAME  = '.sth2m'
      META(1)%VMIN = 0 
      META(1)%VMAX = 90
! IFI=3, IFJ=6
      META => GROUP(3)%FIELD(6)%META
      ! Information for spectral
      META(1)%FSC    = 0.001
      META(1)%UNITS  = 'm-1'
      META(1)%ENAME  = '.wn'
      META(1)%VARNM='wn'
      META(1)%VARNL='wave numbers'
      META(1)%VARNS='wave_numbers'
      META(1)%VARNG='wave_numbers'
      META(1)%VMIN = 0 
      META(1)%VMAX = 32
!
!---------- GROUP 4 ----------------
!
! IFI=4, IFJ=1
      META => GROUP(4)%FIELD(1)%META
      META(1)%FSC    = 0.002
      META(1)%UNITS  = 'm'
      META(1)%ENAME = '.phs<IPART>'
      META(1)%VARNM = 'phs<IPART>'
      META(1)%VARNL = 'wave significant height partition <IPART>'
      META(1)%VARNS = 'sea_surface_wave_significant_height_partition_<IPART>'
      META(1)%VARNG = 'significant_wave_height_partition_<IPART>'
      META(1)%VARNC = PARTCOM
      META(1)%VMIN = 0 
      META(1)%VMAX = 64
! IFI=4, IFJ=2
      META => GROUP(4)%FIELD(2)%META
      META(1)%FSC = 0.01
      META(1)%UNITS = 's'
      META(1)%ENAME = '.ptp<IPART>'
      META(1)%VARNM = 'ptp<IPART>' 
      META(1)%VARNL = 'peak period partition <IPART>' 
      META(1)%VARNS = 'sea_surface_wave_period_at_variance_spectral' // &
                         '_density_maximum_partition_<IPART>'
      META(1)%VARNG = 'dominant_wave_period_partition_<IPART>'
      META(1)%VARNC = PARTCOM
      META(1)%VMIN = 0 
      META(1)%VMAX = 100
! IFI=4, IFJ=3
      META => GROUP(4)%FIELD(3)%META
      META(1)%FSC = 1.
      META(1)%UNITS = 'm'
      META(1)%ENAME = '.plp<IPART>'
      META(1)%VARNM = 'plp<IPART>' 
      META(1)%VARNL = 'peak wave length partition <IPART>' 
      META(1)%VARNS = 'peak_wave_length_partition_<IPART>'
      META(1)%VARNG = 'peak_wave_length_partition_<IPART>'
      META(1)%VARNC = PARTCOM
      META(1)%VMIN = 0 
      META(1)%VMAX = 10000
! IFI=4, IFJ=4
      META => GROUP(4)%FIELD(4)%META
      META(1)%FSC = 0.1
      META(1)%UNITS = 'degree'
      META(1)%ENAME =  '.pdir<IPART>'
      META(1)%VARNM =  'pdir<IPART>' 
      META(1)%VARNL = 'wave mean direction partition <IPART>' 
      META(1)%VARNS = 'sea_surface_wave_from_direction_partition_<IPART>'
      META(1)%VARNG = 'wave_from_direction_partition_<IPART>'
      META(1)%VARNC = PARTCOM
      META(1)%VARND = DIRCOM
      META(1)%VMIN = 0
      META(1)%VMAX = 360
! IFI=4, IFJ=5
      META => GROUP(4)%FIELD(5)%META
      META(1)%FSC = 0.1
      META(1)%UNITS = 'degree'
      META(1)%ENAME = '.pspr<IPART>'
      META(1)%VARNM = 'pspr<IPART>' 
      META(1)%VARNL = 'directional spread partition <IPART>' 
      META(1)%VARNS = 'sea_surface_wave_directional_spread_partition_<IPART>'
      META(1)%VARNG = 'directional_spread_partition_<IPART>'
      META(1)%VARNC = PARTCOM
      META(1)%VMIN = 0 
      META(1)%VMAX = 90
! IFI=4, IFJ=6
      META => GROUP(4)%FIELD(6)%META
      META(1)%FSC = 0.001
      META(1)%UNITS = '1'
      META(1)%ENAME = '.pws<IPART>'
      META(1)%VARNM = 'pws<IPART>'
      META(1)%VARNL = 'wind sea fraction in partition <IPART>' 
      META(1)%VARNS = 'wind_sea_fraction_in_partition_<IPART>' 
      META(1)%VARNG = 'wind_sea_fraction_in_partition_<IPART>'
      META(1)%VARNC = PARTCOM
      META(1)%VMIN = 0 
      META(1)%VMAX = 1
! IFI=4, IFJ=7
      META => GROUP(4)%FIELD(7)%META
      META(1)%FSC = 0.1
      META(1)%UNITS = 'degree'
      META(1)%ENAME = '.pdp<IPART>'
      META(1)%VARNM = 'pdp<IPART>'
      META(1)%VARNL = 'peak direction partition <IPART>'
      META(1)%VARNS = 'sea_surface_wave_peak_from_direction_partition_<IPART>'
      META(1)%VARNG = 'dominant_wave_from_direction_partition_<IPART>'
      META(1)%VARNC = PARTCOM
      META(1)%VARND = DIRCOM
      META(1)%VMIN = 0
      META(1)%VMAX = 360
! IFI=4, IFJ=8
      META => GROUP(4)%FIELD(8)%META
      META(1)%FSC = 0.01
      META(1)%UNITS = '1'
      META(1)%ENAME = '.pqp<IPART>'
      META(1)%VARNM = 'pqp<IPART>'
      META(1)%VARNL = 'peakedness partition <IPART>'
      META(1)%VARNS = 'sea_surface_wave_peakedness_partition_<IPART>'
      META(1)%VARNG = 'wave_peakedness_partition_<IPART>'
      META(1)%VARNC = PARTCOM
      META(1)%VMIN = 0
      META(1)%VMAX = 320
! IFI=4, IFJ=9
      META => GROUP(4)%FIELD(9)%META
      META(1)%FSC = 0.01
      META(1)%UNITS = '1'
      META(1)%ENAME = '.ppe<IPART>'
      META(1)%VARNM = 'ppe<IPART>'
      META(1)%VARNL = 'peak enhancement factor partition <IPART>'
      META(1)%VARNS = 'wave_peak_enhancement_factor_partition_<IPART>'
      META(1)%VARNG = 'wave_peak_enhancement_factor_partition_<IPART>'
      META(1)%VARNC = 'JONSWAP peak enhancement factor; ' // PARTCOM
      META(1)%VARND = ''
      META(1)%VMIN = 0
      META(1)%VMAX = 320
! IFI=4, IFJ=10
      META => GROUP(4)%FIELD(10)%META
      META(1)%FSC = 0.0001
      META(1)%UNITS = 's-1'
      META(1)%ENAME =  '.pgw<IPART>'
      META(1)%VARNM = 'pgw<IPART>'
      META(1)%VARNL = 'frequency width partition <IPART>'
      META(1)%VARNS = 'Gaussian_frequency_spread_partition_<IPART>'
      META(1)%VARNG = 'Gaussian_frequency_spread_partition_<IPART>'
      META(1)%VARNC = 'Gaussian least-square fit to ' // &
          'omni-directional spectral partition; ' // PARTCOM
      META(1)%VMIN = 0
      META(1)%VMAX = 3.2
! IFI=4, IFJ=11
      META => GROUP(4)%FIELD(11)%META
      META(1)%FSC = 0.0001
      META(1)%UNITS = '1'
      META(1)%ENAME = '.psw<IPART>'
      META(1)%VARNM = 'psw<IPART>'
      META(1)%VARNL = 'spectral width partition <IPART>'
      META(1)%VARNS = 'sea_surface_wave_spectral_width_partition_<IPART>'
      META(1)%VARNG = 'wave_spectral_width_partition_<IPART>'
      META(1)%VARNC = PARTCOM
      META(1)%VMIN = 0
      META(1)%VMAX = 3.2
! IFI=4, IFJ=12
      META => GROUP(4)%FIELD(12)%META
      META(1)%FSC = 0.01
      META(1)%UNITS = 's'
      META(1)%ENAME = '.ptm10c<IPART>'
      META(1)%VARNM = 'ptm10c<IPART>'
      META(1)%VARNL = 'mean period Tm10 partition <IPART>'
      META(1)%VARNS = 'sea_surface_wave_mean_period_tm10_partition_<IPART>'
      META(1)%VARNG = 'mean_wave_period_Tm10_partition_<IPART>'
      META(1)%VARNC = PARTCOM
      META(1)%VMIN = 0
      META(1)%VMAX = 100
! IFI=4, IFJ=13
      META => GROUP(4)%FIELD(13)%META
      META(1)%FSC = 0.01
      META(1)%UNITS = 's'
      META(1)%ENAME = '.pt01c<IPART>'
      META(1)%VARNM = 'pt01c<IPART>'
      META(1)%VARNL = 'mean period T01 partition <IPART>'
      META(1)%VARNS = 'sea_surface_wave_mean_period_t01_partition_<IPART>'
      META(1)%VARNG = 'mean_wave_period_T01_partition_<IPART>'
      META(1)%VARNC = PARTCOM
      META(1)%VMIN = 0
      META(1)%VMAX = 100
! IFI=4, IFJ=14
      META => GROUP(4)%FIELD(14)%META
      META(1)%FSC = 0.01
      META(1)%UNITS = 's'
      META(1)%ENAME = '.pt02c<IPART>'
      META(1)%VARNM = 'pt02c<IPART>'
      META(1)%VARNL = 'mean period T02 partition <IPART>'
      META(1)%VARNS = 'sea_surface_wave_mean_period_t02_partition_<IPART>'
      META(1)%VARNG = 'mean_wave_period_T02_partition_<IPART>'
      META(1)%VARNC = PARTCOM
      META(1)%VMIN = 0
      META(1)%VMAX = 100
! IFI=4, IFJ=15
      META => GROUP(4)%FIELD(15)%META
      META(1)%FSC = 0.02
      META(1)%UNITS = 'm2 s rad-1'
      META(1)%ENAME = '.pep<IPART>'
      META(1)%VARNM = 'pep<IPART>'
      META(1)%VARNL = 'energy at peak frequency partition <IPART>'
      META(1)%VARNS = 'sea_surface_wave_energy_at_variance_spectral_density_maximum_partition_<IPART>'
      META(1)%VARNG = 'wave_energy_at_variance_spectral_density_maximum_partition_<IPART>'
      META(1)%VARNC = PARTCOM
      META(1)%VMIN = 0
      META(1)%VMAX = 200
! IFI=4, IFJ=16
      META => GROUP(4)%FIELD(16)%META
      META(1)%FSC = 0.001
      META(1)%UNITS = '1'
      META(1)%ENAME = '.tws'
      META(1)%VARNM = 'tws'
      META(1)%VARNL = 'wind sea fraction'
      META(1)%VARNS = 'wind_sea_fraction'
      META(1)%VARNG = 'wind_sea_fraction'
      META(1)%VARNC = PARTCOM
      META(1)%VMIN = 0 
      META(1)%VMAX = 1
! IFI=4, IFJ=17
      META => GROUP(4)%FIELD(17)%META
      META(1)%FSC = 1.
      META(1)%UNITS = '1'
      META(1)%ENAME = '.pnr'
      META(1)%VARNM = 'pnr'
      META(1)%VARNL = 'number of wave partitions'
      META(1)%VARNS = 'number_of_wave_partitions'
      META(1)%VARNG = 'number_of_wave_partitions'
      META(1)%VARNC = PARTCOM
      META(1)%VMIN = 0 
      META(1)%VMAX = 100
!
!---------- GROUP 5 ----------------
!
! IFI=5, IFJ=1
      META => GROUP(5)%FIELD(1)%META
      ! First component
      META(1)%FSC    = 0.01
      META(1)%ENAME  = '.ust'
      META(1)%UNITS  = 'm s-1'
      META(1)%VARNM='uust'
      META(1)%VARNL='eastward friction velocity'
      META(1)%VARNS='eastward_friction_velocity'
      META(1)%VARNG='eastward_friction_velocity'
      META(1)%VARNC='ust=sqrt(uust**2+vust**2)'
      META(1)%VARND=DIRCOM
      META(1)%VMIN = -99.0
      META(1)%VMAX =  99.0
      
      ! Second component
      META(2) = META(1)
      META(2)%VARNM='vust'
      META(2)%VARNL='northward friction velocity'
      META(2)%VARNS='northward_friction_velocity'
      META(2)%VARNG='northward_friction_velocity'
! IFI=5, IFJ=2
      META => GROUP(5)%FIELD(2)%META
      META(1)%FSC    = 1.E-5
      META(1)%UNITS  = '1'
      META(1)%ENAME  = '.cha'
      META(1)%VARNM='cha'
      META(1)%VARNL='charnock coefficient for surface roughness length for momentum in air'
      META(1)%VARNS='charnock_coefficient_for_surface_roughness_length_for_momentum_in_air'
      META(1)%VARNG='charnock_coefficient'
      META(1)%VMIN = 0
      META(1)%VMAX = 0.327
! IFI=5, IFJ=3
      META => GROUP(5)%FIELD(3)%META
      META(1)%FSC    = 0.1           !0.01
      META(1)%UNITS  = 'kW m-1'
      META(1)%ENAME  = '.cge' 
      META(1)%VARNM='cge'
      META(1)%VARNL='wave energy flux'
      META(1)%VARNS='sea_surface_wind_wave_energy_flux'
      META(1)%VARNG='wave_energy_flux'
      META(1)%VMIN = 0
      META(1)%VMAX = 999
! IFI=5, IFJ=4
      META => GROUP(5)%FIELD(4)%META
      META(1)%FSC    = 0.1
      META(1)%UNITS  = 'W m-2'
      META(1)%ENAME  = '.faw'
      META(1)%VARNM='faw'
      META(1)%VARNL='wind to wave energy flux'
      META(1)%VARNS='wind_mixing_energy_flux_into_sea_water'
      META(1)%VARNG='wind_to_wave_energy_flux'
      META(1)%VMIN = 0
      META(1)%VMAX = 999
! IFI=5, IFJ=5  
      META => GROUP(5)%FIELD(5)%META
      ! First component
      META(1)%FSC    = 0.000001
      META(1)%UNITS  = 'm2 s-2'
      META(1)%ENAME  = '.taw'
      META(1)%VARNM='utaw'
      META(1)%VARNL='eastward wave supported wind stress'
      META(1)%VARNS='eastward_wave_supported_wind_stress'
      META(1)%VARNC='taw=sqrt(utaw**2+vtaw**2)'
      META(1)%VARNG='eastward_wave_supported_wind_stress'
      META(1)%VARND=DIRCOM
      META(1)%VMIN = -0.032
      META(1)%VMAX =  0.032
     
      ! Second component
      META(2) = META(1)
      META(2)%VARNM='vtaw'
[...]

      ! Second component
      META(2) = META(1)
      META(2)%VARNM='vtwa'
      META(2)%VARNL='northward wave to wind stress'
      META(2)%VARNS='northward_wave_to_wind_stress'
      META(2)%VARNG='northward_wave_to_wind_stress'
      META(2)%VARNC='twa=sqrt(utwa**2+vtwa**2)'
! IFI=5, IFJ=7
      META => GROUP(5)%FIELD(7)%META
      META(1)%FSC    = 0.0001
      META(1)%UNITS  = '1'
      META(1)%ENAME  = '.wcc'
      META(1)%VARNM='wcc'
      META(1)%VARNL='whitecap coverage'         
      META(1)%VARNS='whitecap_coverage'
      META(1)%VARNG='whitecap_coverage'            
      META(1)%VARNC=''
      META(1)%VARND=''
      META(1)%VMIN = 0
      META(1)%VMAX = 1
! IFI=5, IFJ=8
      META => GROUP(5)%FIELD(8)%META
      META(1)%FSC    = 0.001
      META(1)%UNITS  = 'm'
      META(1)%ENAME  = '.wcf'
      META(1)%VARNM='wcf'
      META(1)%VARNL='whitecap foam thickness' 
      META(1)%VARNS='whitecap_foam_thickness'
      META(1)%VARNG='whitecap_foam_thickness' 
      META(1)%VMIN = 0
      META(1)%VMAX = 10
! IFI=5, IFJ=9
      META => GROUP(5)%FIELD(9)%META
      META(1)%FSC    = 0.002 
      META(1)%UNITS  = 'm'
      META(1)%ENAME  = '.wch'
      META(1)%VARNM='wch'
      META(1)%VARNL='significant breaking wave height'
      META(1)%VARNS='significant_breaking_wave_height'
      META(1)%VARNG='significant_breaking_wave_height'
      META(1)%VMIN = 0
      META(1)%VMAX = 64
! IFI=5, IFJ=10
      META => GROUP(5)%FIELD(10)%META
      META(1)%FSC    = 0.0001
      META(1)%UNITS  = '1'
      META(1)%ENAME  = '.wcm'
      META(1)%VARNM='wcm'
      META(1)%VARNL='whitecap moment'
      META(1)%VARNS='whitecap_moment'
      META(1)%VARNG='whitecap_moment'
      META(1)%VMIN = 0
      META(1)%VMAX = 1
! IFI=5, IFJ=11
      META => GROUP(5)%FIELD(11)%META
      META(1)%FSC    = 0.002
      META(1)%UNITS  = 's'
      META(1)%ENAME  = '.fws'
      META(1)%VARNM='fws'
      META(1)%VARNL='Wind_sea_mean_period_T0M1'
      META(1)%VARNS='Wind_sea_mean_period_T0M1'
      META(1)%VARNG='Wind_sea_mean_period_T0M1'
      META(1)%VARNC=''
      META(1)%VARND=''
      META(1)%VMIN = 0
      META(1)%VMAX = 64
!
!---------- GROUP 6 ----------------
!   
! IFI=6, IFJ=1 
      META => GROUP(6)%FIELD(1)%META
      META(1)%FSC  = 10.
      META(1)%UNITS = 'N m-1'
      META(1)%ENAME = '.sxy'
      META(1)%VARND = DIRCOM
      META(1)%VMIN = -30000
      META(1)%VMAX = 30000
      
      ! First component
      META(1)%VARNM='sxx'
      META(1)%VARNL='Radiation stress component Sxx'
      META(1)%VARNS='Radiation_stress_component_Sxx'
      META(1)%VARNS='radiation_stress_component_sxx'
      
      ! S6cond component
      META(2) = META(1)
      META(2)%VARNM='syy'
      META(2)%VARNL='Radiation stress component Syy'
      META(2)%VARNS='Radiation_stress_component_Syy'
      META(2)%VARNS='radiation_stress_component_syy'
      
      ! Third component
      META(3) = META(1)
      META(3)%FSC = 1.
      META(3)%VARNM='sxy'
      META(3)%VARNL='Radiation stress component Sxy'
      META(3)%VARNS='Radiation_stress_component_Sxy'
      META(3)%VARNS='radiation_stress_component_sxy'
! IFI=6, IFJ=2
      META => GROUP(6)%FIELD(2)%META
      META(1)%FSC    = 0.000001
      META(1)%UNITS  = 'm2 s-2'
      META(1)%ENAME  = '.two'
      META(1)%VMIN = -0.032 
      META(1)%VMAX =  0.032
      META(1)%VARND = DIRCOM

      ! First component
      META(1)%VARNM='utwo'
      META(1)%VARNL='eastward wave to ocean stress'
      META(1)%VARNS='eastward_wave_to_ocean_stress'
      META(1)%VARNG='eastward_wave_to_ocean_stress'
      META(1)%VARNC='two=sqrt(utwo**2+vtwo**2)'
      
      ! Second component
      META(2) = META(1)
      META(2)%VARNM='vtwo'
      META(2)%VARNL='northward wave to ocean stress'
      META(2)%VARNS='northward_wave_to_ocean_stress'
      META(2)%VARNG='northward_wave_to_ocean_stress'
      META(2)%VARNC='two=sqrt(utwo**2+vtwo**2)'
! IFI=6, IFJ=3
      META => GROUP(6)%FIELD(3)%META
      META(1)%FSC    = 0.1
      META(1)%UNITS  = 'm2 s-2'
      META(1)%ENAME  = '.bhd'
      META(1)%VARNM='bhd'
      META(1)%VARNL='radiation pressure (Bernouilli Head)'
      META(1)%VARNS='radiation_pressure'
      META(1)%VARNG='radiation_pressure'
      META(1)%VMIN = 0 
      META(1)%VMAX = 100
! IFI=6, IFJ=4
      META => GROUP(6)%FIELD(4)%META
      META(1)%FSC    = 0.1
      META(1)%UNITS  = 'W m-2'
      META(1)%ENAME  = '.foc'
      META(1)%VARNM='foc'
      META(1)%VARNL='wave to ocean energy flux'
      META(1)%VARNS='wave_to_ocean_energy_flux'
      META(1)%VARNG='wave_to_ocean_energy_flux'
      META(1)%VMIN = 0 
      META(1)%VMAX = 999
! IFI=6, IFJ=5
      META => GROUP(6)%FIELD(5)%META
      META(1)%FSC    = 0.001
      META(1)%UNITS  = 'm2 s-1'
      META(1)%ENAME  = '.tus'
      META(1)%VARND = DIRCOM
      META(1)%VMIN = -9.9
      !TODO WHERE IS VMAX?
      
      ! First component
      META(1)%VARNM='utus'
      META(1)%VARNL='eastward stokes transport'
      META(1)%VARNS='eastward_stokes_transport'
      META(1)%VARNG='eastward_stokes_transport'
      META(1)%VARNC='tus=sqrt(utus**2+vtus**2)'

      ! Second component
      META(2) = META(1)
      META(2)%VARNM='vtus'
      META(2)%VARNL='northward stokes transport'
      META(2)%VARNS='northward_stokes_transport'
      META(2)%VARNG='northward_stokes_transport'
      META(2)%VARNC='tus=sqrt(utus**2+vtus**2)'

! IFI=6, IFJ=6
      META => GROUP(6)%FIELD(6)%META
      META(1)%FSC    = 0.0005
      META(1)%UNITS  = 'm s-1'
      META(1)%ENAME  = '.uss'
      
      ! First component
      META(1)%VARNM='uuss'
      META(1)%VARNL='eastward surface stokes drift'
      META(1)%VARNS='eastward_surface_stokes_drift'
      META(1)%VARNG='eastward_surface_stokes_drift'
      META(1)%VARNC='uss=sqrt(uuss**2+vuss**2)'
      META(1)%VARND=DIRCOM
      META(1)%VMIN = -4.95 
      META(1)%VMAX =  4.95
      
      ! Second component
      META(2) = META(1)
      META(2)%VARNM='vuss'
      META(2)%VARNL='northward surface stokes drift'
      META(2)%VARNS='northward_surface_stokes_drift'
      META(2)%VARNG='northward_surface_stokes_drift'
      WRITE(META(2)%VARNC,'(A,F8.4,A,F8.4,A)') 'Frequency range ',SIG(1)*TPIINV,' to ',SIG(NK)*TPIINV,' Hz'
! IFI=6, IFJ=7
      META => GROUP(6)%FIELD(7)%META
      META(1)%FSC    = 0.01
      META(1)%ENAME  = '.p2s'
      META(1)%UNITS  = 'm4'
      META(1)%VMIN = -150
      META(1)%VMAX = 320
      
      ! First component
      META(1)%VARNL='power spectral density of equivalent surface pressure'
      META(1)%VARNS='power_spectral_density_of_equivalent_surface_pressure'
      META(1)%VARNG='power_spectral_density_of_equivalent_surface_pressure'
      META(1)%VARNM='fp2s'

      ! Second component
      META(2) = META(1)
      META(2)%VARNM='pp2s'
      META(2)%UNITS= 's-1'
      META(2)%VARNL='peak period of power spectral density of equivalent surface pressure'
      META(2)%VARNS='peak_period_of_power_spectral_density_of_equivalent_surface_pressure'
      META(2)%VARNG='peak_period_of_power_spectral_density_of_equivalent_surface_pressure'
      
! IFI=6, IFJ=8
      META => GROUP(6)%FIELD(8)%META
      META(1)%UNITS = 'm s-1 Hz-1'
      META(1)%FSC = 0.0005
      META(1)%ENAME = '.usf'
      META(1)%VMIN = -4.95
      META(1)%VMAX =  4.95
      META(1)%VARND = DIRCOM
      
      ! First component
      META(1)%VARNM='uusf'
      META(1)%VARNL='eastward spectral variance of surface stokes drift'
      META(1)%VARNS='eastward_spectral_variance_of_surface_stokes_drift'
      META(1)%VARNC='usf=sqrt(uusf**2+vusf**2)'
      META(1)%VARNG='eastward_spectral_variance_of_surface_stokes_drift'

      ! Second component
      META(2) = META(1)
      META(2)%VARNM='vusf'
      META(2)%VARNL='northward spectral variance of surface stokes drift'
      META(2)%VARNS='northward_spectral_variance_of_surface_stokes_drift'
      META(2)%VARNG='northward_spectral_variance_of_surface_stokes_drift'
      META(2)%VARNC='usf=sqrt(uusf**2+vusf**2)'
! IFI=6, IFJ=9
      META => GROUP(6)%FIELD(9)%META
        ! Information for spectral microseismic generation data (2nd file)
      META(1)%FSC = 0.0004
      META(1)%VARNM='p2l'
      META(1)%VARNL='base ten logarithm of power spectral density of equivalent surface pressure'
      META(1)%VARNS='base_ten_logarithm_of_power_spectral_density_of_equivalent_surface_pressure'
      META(1)%VARNG='base_ten_logarithm_of_power_spectral_density_of_equivalent_surface_pressure'
      IF (NCVARTYPE.EQ.2) THEN 
        META(1)%UNITS='log10(Pa2 m2 s+1E-12)'
      ELSE 
        META(1)%UNITS='Pa2 m2 s'
      ENDIF
      META(1)%VARNC=''
      META(1)%VARND=''
      META(1)%ENAME='.p2l'
      META(1)%VMIN = -12
      META(1)%VMAX = 12
! IFI=6, IFJ=10
      META => GROUP(6)%FIELD(10)%META
      META(1)%FSC = 0.000001
      META(1)%UNITS = 'm2 s-2'
      META(1)%ENAME = '.tic'
      META(1)%VMIN = -0.032
      META(1)%VMAX =  0.032
      META(1)%VARND = DIRCOM
 
      ! First component
      META(1)%VARNL='eastward wave to sea ice stress'
      META(1)%VARNM='utic'
      META(1)%VARNS='eastward_wave_to_sea_ice_stress'
      META(1)%VARNG='eastward_wave_to_sea_ice_stress'
      META(1)%VARNC='two=sqrt(utwo**2+vtwo**2)'
      ! Second component
      META(2) = META(1)
      META(2)%VARNM='vtic'
      META(2)%VARNL='northward wave to sea ice stress'
      META(2)%VARNS='northward_wave_to_sea_ice_stress'
      META(2)%VARNG='northward_wave_to_sea_ice_stress'
      META(2)%VARNC='two=sqrt(utwo**2+vtwo**2)'
! IFI=6, IFJ=11        
      META => GROUP(6)%FIELD(11)%META
      META(1)%FSC    = 0.1
      META(1)%UNITS  = 'W m-2'
      META(1)%ENAME  = '.fic'
      META(1)%VARNM='fic'
      META(1)%VARNL='wave to sea ice energy flux'
      META(1)%VARNS='wave_to_sea_ice_energy_flux'
      META(1)%VARNG='wave_to_sea_ice_energy_flux'
      META(1)%VMIN = 0 
      META(1)%VMAX = 999
! IFI=6, IFJ=12 
      META => GROUP(6)%FIELD(12)%META
      META(1)%UNITS   = 'm s-1'
      META(1)%FSC    = 0.0005
      META(1)%ENAME  = '.usp'
      META(1)%VARND  = DIRCOM
  
      ! First component
      META(1)%VARNM='ussp'
      META(1)%VARNL='eastward partitioned surface stokes drift'
      META(1)%VARNS='eastward_partitioned_surface_stokes_drift'
      META(1)%VARNG='eastward_partitioned_surface_stokes_drift'
      META(1)%VARNC='usp=sqrt(ussp**2+vssp**2)'
    
      ! Second component
      META(2) = META(1)
      META(2)%VARNM='vssp'
      META(2)%VARNL='northward partitioned surface stokes drift'
      META(2)%VARNS='northward_partitioned_surface_stokes_drift'
      META(2)%VARNG='northward_partitioned_surface_stokes_drift'
      META(2)%VARNC='usp=sqrt(ussp**2+vssp**2)'
!
!---------- GROUP 7 ----------------
!   
! IFI=7, IFJ=1 
      META => GROUP(7)%FIELD(1)%META
      META(1)%FSC    = 0.01
      META(1)%ENAME  = '.abr'
      META(1)%UNITS  = 'm'
      META(1)%VMIN = -180
      META(1)%VMAX = 180
      META(1)%VARND = DIRCOM
      
      ! First component
      META(1)%VARNM='uabr'
      META(1)%VARNL='rms of bottom displacement amplitude zonal'
      META(1)%VARNS='rms_of_bottom_displacement_amplitude_zonal'
      META(1)%VARNG='rms_of_bottom_displacement_amplitude_zonal'
      META(1)%VARNC='abr=sqrt(uabr**2+vabr**2)'
      
      ! Second component
      META(2) = META(1)
      META(2)%VARNM='vabr'
      META(2)%VARNL='rms of bottom displacement amplitude meridional'
      META(2)%VARNS='rms_of_bottom_displacement_amplitude_meridional'
      META(2)%VARNG='rms_of_bottom_displacement_amplitude_meridional'
      META(2)%VARNC='abr=sqrt(uabr**2+vabr**2)'
! IFI=7, IFJ=2
      META => GROUP(7)%FIELD(2)%META
      META(1)%FSC    = 0.01
      META(1)%ENAME  = '.ubr'
      META(1)%UNITS  = 'm s-1'
      META(1)%VMIN = -180
      META(1)%VMAX = 180
      META(1)%VARND = DIRCOM

      ! First component
      META(1)%VARNM='uubr'
      META(1)%VARNL='rms of bottom velocity amplitude zonal'
      META(1)%VARNS='rms_of_bottom_velocity_amplitude_zonal'
      META(1)%VARNG='rms_of_bottom_velocity_amplitude_zonal'
      META(1)%VARNC='ubr=sqrt(uubr**2+vubr**2)'

      ! Second component
      META(2) = META(1)
      META(2)%VARNM='vubr'
      META(2)%VARNL='rms of bottom velocity amplitude meridional'
      META(2)%VARNS='rms_of_bottom_velocity_amplitude_meridional'
      META(2)%VARNG='rms_of_bottom_velocity_amplitude_meridional'
! IFI=7, IFJ=3
      META => GROUP(7)%FIELD(3)%META
      META(1)%FSC    = 0.001
      META(1)%UNITS  = 'm'
      META(1)%ENAME  = '.bed'
      META(1)%VMIN = 0
      META(1)%VMAX = 30
      META(1)%VARND = DIRCOM

      ! First component
      META(1)%VARNM='bed'
      META(1)%VARNL='bottom roughness'
      META(1)%VARNS='sea bottom roughness length'
      META(1)%VARNG='ripple_wavelength'
      META(1)%VARNC='ripple_length=sqrt(ripplex**2+rippley**2)'
      
      ! Second component
      META(2) = META(1)
      META(2)%VARNM='ripplex'
      META(2)%VARNL='eastward sea bottom ripple wavelength'
      META(2)%VARNS='eastward_ripple_wavelength'
      META(2)%VARNG='eastward_ripple_wavelength'
      META(2)%VARNC='ripple_length=sqrt(ripplex**2+rippley**2)'

      ! Third component
      META(3) = META(1)
      META(3)%VARNM='rippley'
      META(3)%VARNL='northward sea bottom ripple wavelength'
      META(3)%VARNS='northward_ripple_wavelength'
      META(3)%VARNG='northward_ripple_wavelength'
      META(3)%VARNC='ripple_length=sqrt(ripplex**2+rippley**2)'
! IFI=7, IFJ=4
      META => GROUP(7)%FIELD(4)%META
      META(1)%FSC    = 0.1
      META(1)%UNITS  = 'W m-2'
      META(1)%ENAME  = '.fbb'
      META(1)%VARNM='fbb'
      META(1)%VARNL='wave dissipation in bbl'
      META(1)%VARNS='wave_energy_dissipation_in_bottom_boundary_layer'
      META(1)%VARNG='wave_dissipation_in_bbl'
      META(1)%VMIN = 0
      META(1)%VMAX = 999
! IFI=7, IFJ=5
      META => GROUP(7)%FIELD(5)%META
      META(1)%FSC    = 0.000001
      META(1)%UNITS  = 'm2 s-2'
      META(1)%ENAME  = '.tbb'
      META(1)%VMIN = -0.032
      META(1)%VMAX =  0.032
      META(1)%VARND = DIRCOM
      
      ! First component
      META(1)%VARNM='utbb'
      META(1)%VARNL='eastward wave to bbl stress'
      META(1)%VARNS='eastward_wave_to_bottom_boundary_layer_stress'
      META(1)%VARNG='eastward_wave_to_bbl_stress'
      META(1)%VARNC='tbb=sqrt(utbb**2+vtbb**2)'
      
      ! Second component
      META(2) = META(1)
      META(2)%VARNM='vtbb'
      META(2)%VARNL='northward wave to bbl stress'
      META(2)%VARNS='northward_wave_to_bottom_boundary_layer_stress'
      META(2)%VARNG='northward_wave_to_bbl_stress'
      META(2)%VARNC='tbb=sqrt(utbb**2+vtbb**2)'
!
!---------- GROUP 8 ----------------
! IFI=8, IFJ=1
      META => GROUP(8)%FIELD(1)%META
      META(1)%FSC    = 0.00001
      META(1)%ENAME  = '.mss'
      META(1)%UNITS  = '1'
      META(1)%VMIN = 0 
      META(1)%VMAX = 0.3
      META(1)%VARND = DIRCOM
      WRITE(META(1)%VARNC,'(A,F8.4,A,F8.4,A)') 'Frequency range ',SIG(1)*TPIINV,' to ',SIG(NK)*TPIINV,' Hz'
      
      ! First component
      META(1)%VARNM='mssu'
      META(1)%VARNL='downwave mean square slope'
      META(1)%VARNS='x_mean_square_slope'
      META(1)%VARNG='x_mean_square_slope'
      META(1)%VARNC='mss=mssu+mssc'
      
      ! Second component
      META(2) = META(1)
      META(2)%VARNM='mssc'
      META(2)%VARNL='crosswave mean square slope'
      META(2)%VARNS='y_mean_square_slope'
      META(2)%VARNG='y_mean_square_slope'
! IFI=8, IFJ=2
      META => GROUP(8)%FIELD(2)%META
      META(2)%FSC    = 1E-7     
      META(2)%ENAME  = '.msc'
      META(2)%UNITS  = '1'
      META(2)%VMIN = 0 
      META(2)%VMAX = 0.003
      META(2)%VARND = DIRCOM
      
      ! First component
      META(1)%VARNM='mscx'
      META(1)%VARNL='eastward phillips constant'
      META(1)%VARNS='eastward_phillips_constant'
      META(1)%VARNG='eastward_phillips_constant'
      META(1)%VARNC='msc=mscx+mscy'
      
      ! Second component
      META(2) = META(1)
      META(2)%VARNM='mscy'
      META(2)%VARNL='northward phillips constant'
      META(2)%VARNS='northward_phillips_constant'
      META(2)%VARNG='northward_phillips_constant'
      META(2)%VARNC='msc=mscx+mscy'
! IFI=8, IFJ=3
      META => GROUP(8)%FIELD(3)%META
      META(1)%FSC    = 0.1
      META(1)%UNITS  = 'degree'
      META(1)%ENAME  = '.msd'
      META(1)%VARNM='mssd'
      META(1)%VARNL='u direction for mss'
      META(1)%VARNS='sea_surface_wave_dominant_mean_square_slope_direction'
      META(1)%VARNG='sea_surface_wave_dominant_mean_square_slope_direction'
      WRITE(META(1)%VARNC,'(A,F8.4,A,F8.4,A)') 'Frequency range ',SIG(1)*TPIINV,' to ',SIG(NK)*TPIINV,' Hz'
      META(1)%VARND = DIRCOM
      META(1)%VMIN = 0
      META(1)%VMAX = 360
! IFI=8, IFJ=4
      META => GROUP(8)%FIELD(4)%META
      META(1)%FSC    = 0.1
      META(1)%UNITS  = 'degree'
      META(1)%ENAME  = '.mcd'
      META(1)%VARNM='mscd'
      META(1)%VARNL='x direction for msc'
      META(1)%VARNS='sea_surface_wave_dominant_mean_square_slope_direction_in_highest_frequency'
      META(1)%VARNG='sea_surface_wave_dominant_mean_square_slope_direction_in_highest_frequency'
      META(1)%VARND = DIRCOM
      META(1)%VMIN = 0
      META(1)%VMAX = 360
! IFI=8, IFJ=5
      META => GROUP(8)%FIELD(5)%META
      META(1)%FSC    = 0.001
      META(1)%UNITS  = '1'
      META(1)%ENAME  = '.qp'
      META(1)%VARNM='qp'
      META(1)%VARNL='peakedness'
      META(1)%VARNS='sea_surface_wave_peakedness'
      META(1)%VARNG='wave_peakedness'
      META(1)%VARNC='Goda wave peakedness parameter'
      META(1)%VMIN = 0
      META(1)%VMAX = 32
!
!---------- GROUP 9 ----------------
!
! IFI=9, IFJ=1
      META => GROUP(9)%FIELD(1)%META
      META(1)%FSC    = 0.1
      META(1)%UNITS  = 'min.'
      META(1)%ENAME  = '.dtd'
      META(1)%VARNM='dtd'
      META(1)%VARNL='dynamic time step'
      META(1)%VARNS='dynamic_time_step'
      META(1)%VARNG='dynamic_time_step'
      META(1)%VMIN = 0 
      META(1)%VMAX = 3200
! IFI=9, IFJ=2
      META => GROUP(9)%FIELD(2)%META
      META(1)%FSC    = 0.001
      META(1)%UNITS  = 's-1'
      META(1)%ENAME  = '.fc'
      META(1)%VARNM='fc'
      META(1)%VARNL='cut off frequency'
      META(1)%VARNS='cut_off_frequency'
      META(1)%VARNG='cut_off_frequency'
      META(1)%VMIN = 0 
      META(1)%VMAX = 8
! IFI=9, IFJ=3
      META => GROUP(9)%FIELD(3)%META
      META(1)%FSC    = 0.01
      META(1)%UNITS  = '1'
      META(1)%ENAME  = '.cfx'
      META(1)%VARNM='cfx'
      META(1)%VARNL='maximum cfl for spatial advection'
      META(1)%VARNS='maximum_cfl_for_spatial_advection'
      META(1)%VARNG='maximum_cfl_for_spatial_advection'
      META(1)%VMIN = 0 
      META(1)%VMAX = 320
! IFI=9, IFJ=4
      META => GROUP(9)%FIELD(4)%META
      META(1)%FSC    = 0.01
      META(1)%UNITS  = '1'
      META(1)%ENAME  = '.cfd'
      META(1)%VARNM='cfd'
      META(1)%VARNL='maximum cfl for direction advection'
      META(1)%VARNS='maximum_cfl_for_direction_advection'
      META(1)%VARNG='maximum_cfl_for_direction_advection'
      META(1)%VMIN = 0 
      META(1)%VMAX = 320
! IFI=9, IFJ=5
      META => GROUP(9)%FIELD(5)%META
      META(1)%FSC    = 0.01
      META(1)%UNITS  = '1'
      META(1)%ENAME  = '.cfk'
      META(1)%VARNM='cfk'
      META(1)%VARNL='maximum cfl for frequency advection'
      META(1)%VARNS='maximum_cfl_for_frequency_advection'
      META(1)%VARNG='maximum_cfl_for_frequency_advection'
      META(1)%VMIN = 0 
      META(1)%VMAX = 320
!
! ------ Group 10 (User defined) -------
!
! IFI=10, IFJ=1
      META => GROUP(10)%FIELD(1)%META
      META(1)%FSC    = 0.1
      META(1)%UNITS  = 'm'
      META(1)%VMIN = 0
      META(1)%VMAX = 0
      WRITE (META(1)%ENAME,'(A2,I2.2)') '.u'
      WRITE (META(1)%VARNM,'(A1,I2.2)') 'u'
      WRITE (META(1)%VARNL,'(A12,I2.2)') 'User_defined'
      WRITE (META(1)%VARNS,'(A12,I2.2)') 'User_defined'
      WRITE (META(1)%VARNG,'(A12,I2.2)') 'user_defined'
!
      END SUBROUTINE DEFAULT_META
!/ ------------------------------------------------------------------- /

      END MODULE W3OUNFMETAMD
