#include "w3macros.h"
!/
!/ ------------------------------------------------------------------- /
!/ Macros for ESMF logging
!/
#define FILENAME "wmesmfmd.ftn"
#define CONTEXT  line=__LINE__,file=FILENAME,method=METHOD
#define PASSTHRU msg=ESMF_LOGERR_PASSTHRU,CONTEXT
!/
!/ ------------------------------------------------------------------- /
!/ Define real kind for data passed through ESMF interface
!/
#if defined(ESMF_R8)
#define ESMF_KIND_RX ESMF_KIND_R8
#define ESMF_TYPEKIND_RX ESMF_TYPEKIND_R8
#else
#define ESMF_KIND_RX ESMF_KIND_R4
#define ESMF_TYPEKIND_RX ESMF_TYPEKIND_R4
#endif
!/
!/ ------------------------------------------------------------------- /
!/ Macro for enabling using W3OUTG to calculate export fields
!/
#define USE_W3OUTG_FOR_EXPORT___disabled
!/
!/ ------------------------------------------------------------------- /
!/ Macros for enabling test output
!/
#define TEST_WMESMFMD___disabled
#define TEST_WMESMFMD_GETIMPORT___disabled
#define TEST_WMESMFMD_SETEXPORT___disabled
#define TEST_WMESMFMD_CREATEIMPGRID___disabled
#define TEST_WMESMFMD_CREATEEXPGRID___disabled
#define TEST_WMESMFMD_SETUPIMPBMSK___disabled
#define TEST_WMESMFMD_CHARNK___disabled
#define TEST_WMESMFMD_ROUGHL___disabled
#define TEST_WMESMFMD_BOTCUR___disabled
#define TEST_WMESMFMD_RADSTR2D___disabled
#define TEST_WMESMFMD_STOKES3D___disabled
#define TEST_WMESMFMD_PSTOKES___disabled
!/
!/ ------------------------------------------------------------------- /
      module WMESMFMD
!/
!/                  +-----------------------------------+
!/                  | WAVEWATCH III           NOAA/NCEP |
!/                  |        T. J. Campbell, NRL        |
!/                  |         J. Meixner, NCEP          |
!/                  |     A. J. van der Westhuysen      |
!/                  |                        FORTRAN 90 |
!/                  | Last update :         09-Aug-2017 |
!/                  +-----------------------------------+
!/
!/    20-Jan-2017 : Origination.                        ( version 6.02 )
!/    09-Aug-2017 : Add ocean forcing export fields     ( version 6.03 )
!/    28-Feb-2018 : Modifications for unstruc meshes    ( version 6.06 ) 
!/
!/    Copyright 2009-2014 National Weather Service (NWS),
!/       National Oceanic and Atmospheric Administration.  All rights
!/       reserved.  WAVEWATCH III is a trademark of the NWS. 
!/       No unauthorized use without permission.
!/
!  1. Purpose :
!
!     National Unified Prediction Capability (NUOPC) based
!     Earth System Modeling Framework (ESMF) interface module for
!     multi-grid wave model.
!
!  2. Variables and types :
!
!     All module variables and types are scoped private by default.
!     The private module variables and types are not listed in this section.
!
!      Name      Type  Scope    Description
!     ----------------------------------------------------------------
!     ----------------------------------------------------------------
!
!  3. Subroutines and functions :
!
!     All module subroutines and functions are scoped private by default.
!
!      Name             Type   Scope    Description
!     -----------------------------------------------------------------
!      SetServices      Subr.  Public   Wave model ESMF Set Services
!     -----------------------------------------------------------------
!      InitializeP0     Subr.  Private  NUOPC/ESMF Initialize phase 0
!      InitializeP1     Subr.  Private  NUOPC/ESMF Initialize phase 1
!      InitializeP3     Subr.  Private  NUOPC/ESMF Initialize phase 3
!      Finalize         Subr.  Private  NUOPC/ESMF Finalize
!      DataInitialize   Subr.  Private  NUOPC/ESMF Data Initialize
!      ModelAdvance     Subr.  Private  NUOPC/ESMF Model Advance
!      GetImport        Subr.  Private  Get fields from import state
!      SetExport        Subr.  Private  Set fields from export state
!      CreateImpGrid    Subr.  Private  Create ESMF grid for import
!      CreateExpGrid    Subr.  Private  Create ESMF grid for export
!      CreateImpMesh    Subr.  Private  Create ESMF mesh for import
!      CreateExpMesh    Subr.  Private  Create ESMF mesh for export
!      SetupImpBmsk     Subr.  Private  Setup background blending mask
!      BlendImpField    Subr.  Private  Blend import field with background
!      FieldFill        Subr.  Private  Fill ESMF field
!      FieldGather      Subr.  Private  Gather ESMF field
!      FieldIndex       Func.  Private  Return field index
!      PrintTimers      Subr.  Private  Print wallclock timers
!      CalcDecomp       Subr.  Private  Calculate a 2D processor layout
!      GetEnvValue      Subr.  Private  Get value of env. variable
!      GetZlevels       Subr.  Private  Get z-levels from file for SDC
!      CalcCharnk       Subr.  Private  Calculate Charnock for export
!      CalcRoughl       Subr.  Private  Calculate roughness length for export
!      CalcBotcur       Subr.  Private  Calculate wave-bottom currents for export
!      CalcRadstr2D     Subr.  Private  Calculate 2D radiation stresses for export
!      CalcStokes3D     Subr.  Private  Calculate 3D Stokes drift current for export
!      CalcPStokes      Subr.  Private  Calculate partitioned Stokes drift for export
!     ----------------------------------------------------------------
!
!  4. Subroutines and functions used :
!
!     See subroutine documentation.
!
!  5. Remarks :
!
!  6. Switches :
!
!     See subroutine documentation.
!
!     !/MPI   Switch for enabling Message Passing Interface API
!     !/SHRD  Switch for shared memory architecture
!     !/DIST  Switch for distributed memory architecture
!     !/ST3   WAM 4+ input and dissipation.
!     !/ST4   Ardhuin et al. (2009, 2010)
!
!  7. Source code :
!
!/ ------------------------------------------------------------------- /
!/
!/ Use associated modules
!/
! --- ESMF Module
      use ESMF

! --- NUOPC modules
      use NUOPC
      use NUOPC_Model, parent_SetServices => SetServices

! --- WW3 modules
      use CONSTANTS
      use WMINITMD, only: WMINIT, WMINITNML
      use WMWAVEMD, only: WMWAVE
      use WMFINLMD, only: WMFINL
      use WMMDATMD
      use W3GDATMD
      use W3IDATMD
      use W3ODATMD
      use W3WDATMD
      use W3ADATMD
      use W3TIMEMD
      use WMUPDTMD, only: WMUPD2
      use W3UPDTMD, only: W3UINI
!/ST3      use W3SRC3MD, only: W3SPR3
!/ST4      use W3SRC4MD, only: W3SPR4
      use W3IOGOMD, only: W3OUTG
!/
!/ Specify default data typing
!/
      implicit none
!/
!/ Include MPI definitions
!/
!/MPI      include "mpif.h"
!/
!/ Specify default accessibility
!/
      private
      save
!/
!/ Public module methods
!/
      public SetServices
!/
!/ Private module parameters
!/
! --- Default Mask Convention for import/export fields
      INTEGER, PARAMETER :: DEFAULT_MASK_WATER =  0
      INTEGER, PARAMETER :: DEFAULT_MASK_LAND  =  1

! --- Miscellaneous
      integer, parameter :: stdo = 6
      type(ESMF_VM) :: vm
      integer :: lpet, npet
      integer :: verbosity
      logical :: realizeAllExport = .false.
      integer :: maskValueWater = DEFAULT_MASK_WATER
      integer :: maskValueLand  = DEFAULT_MASK_LAND
      integer              :: nz    ! Number of z-levels for SDC
      real(4), allocatable :: zl(:) ! Array of z-levels for SDC
      character(256)       :: zlfile = 'none' ! File containing z-levels for SDC
      character(ESMF_MAXSTR) :: msg
      real(ESMF_KIND_RX) :: zeroValue
      real(ESMF_KIND_RX) :: missingValue
!
! --- Timing
      integer, parameter :: numwt=10
      character(32) :: wtnam(numwt)
      integer       :: wtcnt(numwt)
      real(8)       :: wtime(numwt)
!
! --- Import fields
      type(ESMF_ArraySpec)          :: impArraySpec2D
      type(ESMF_StaggerLoc)         :: impStaggerLoc
      type(ESMF_Index_Flag)         :: impIndexFlag
      type(ESMF_Grid)               :: impGrid
      integer                       :: impGridID
      logical                       :: impGridIsLocal
      integer, parameter            :: impHaloWidth = 3
      integer                       :: impHaloLWidth(2)
      integer                       :: impHaloUWidth(2)
      type(ESMF_RouteHandle)        :: impHaloRH
      type(ESMF_Field)              :: impMask
      logical                       :: noActiveImpFields
      integer                       :: numImpFields
      character(6), allocatable     :: impFieldName(:)
      character(128), allocatable   :: impFieldStdName(:)
      logical, allocatable          :: impFieldInitRqrd(:)
      logical, allocatable          :: impFieldActive(:)
      type(ESMF_Field), allocatable :: impField(:)
!
! --- Background import fields
      character(10), allocatable    :: mbgFieldName(:)
      character(128), allocatable   :: mbgFieldStdName(:)
      logical, allocatable          :: mbgFieldActive(:)
      type(ESMF_Field), allocatable :: mbgField(:)
      type(ESMF_Field), allocatable :: bmskField(:)
!
! --- Unstructured import meshes
      type(ESMF_Mesh)               :: impMesh
!      integer                       :: impMeshID
!      logical                       :: impMeshIsLocal
!
! --- Export fields
      type(ESMF_ArraySpec)          :: expArraySpec2D
      type(ESMF_ArraySpec)          :: expArraySpec3D
      type(ESMF_StaggerLoc)         :: expStaggerLoc
      type(ESMF_Index_Flag)         :: expIndexFlag
      type(ESMF_Grid)               :: expGrid
      integer                       :: expGridID = 1
      logical                       :: expGridIsLocal
      integer, parameter            :: expHaloWidth = 3
      integer                       :: expHaloLWidth(2)
      integer                       :: expHaloUWidth(2)
      type(ESMF_RouteHandle)        :: expHaloRH
      type(ESMF_Field)              :: expMask
      logical                       :: noActiveExpFields
      integer                       :: numExpFields
      character(6), allocatable     :: expFieldName(:)
      character(128), allocatable   :: expFieldStdName(:)
      integer, allocatable          :: expFieldDim(:)
      logical, allocatable          :: expFieldActive(:)
      type(ESMF_Field), allocatable :: expField(:)
!
! --- Unstructured export meshes
      type(ESMF_Mesh)               :: expMesh
      integer                       :: expMeshID
      logical                       :: expMeshIsLocal
!
! --- Native field stuff
      type(ESMF_ArraySpec)  :: natArraySpec1D
      type(ESMF_ArraySpec)  :: natArraySpec2D
      type(ESMF_ArraySpec)  :: natArraySpec3D
      type(ESMF_StaggerLoc) :: natStaggerLoc
      type(ESMF_Index_Flag) :: natIndexFlag
      type(ESMF_Grid)       :: natGrid
      integer               :: natGridID
      logical               :: natGridIsLocal
      type(ESMF_RouteHandle):: n2eRH
!/
!/ ------------------------------------------------------------------- /
      contains
!/ ------------------------------------------------------------------- /
#undef METHOD
#define METHOD "SetServices"
      subroutine SetServices ( gcomp, rc )
!/
!/                  +-----------------------------------+
!/                  | WAVEWATCH III           NOAA/NCEP |
!/                  |        T. J. Campbell, NRL        |
!/                  |                        FORTRAN 90 |
!/                  | Last update :         20-Jan-2017 |
!/                  +-----------------------------------+
!/
!/    20-Jan-2017 : Origination.                        ( version 6.02 )
!/
!  1. Purpose :
!
!     Wave model ESMF set services.
!
!  2. Method :
!
!  3. Parameters :
!
!     Parameter list
!     ----------------------------------------------------------------
!       gcomp   Type   I/O Gridded component
!       rc      Int.   O   Return code
!     ----------------------------------------------------------------
!
!  4. Subroutines used :
!
!      Name            Type   Module    Description
!     ----------------------------------------------------------------
!      InitializeP0    Subr.  WMESMFMD  Wave model NUOPC/ESMF Initialize phase 0
!      InitializeP1    Subr.  WMESMFMD  Wave model NUOPC/ESMF Initialize phase 1
!      InitializeP3    Subr.  WMESMFMD  Wave model NUOPC/ESMF Initialize phase 3
!      Finalize        Subr.  WMESMFMD  Wave model NUOPC/ESMF Finalize
!      DataInitialize  Subr.  WMESMFMD  Wave model NUOPC/ESMF Data Initialize
!      ModelAdvance    Subr.  WMESMFMD  Wave model NUOPC/ESMF Model Advance
!     ----------------------------------------------------------------
!
!  5. Called by :
!
!  6. Error messages :
!
!  7. Remarks :
!
!  8. Structure :
!
!  9. Switches :
!
! 10. Source code :
!
!/ ------------------------------------------------------------------- /
!/
!/ ------------------------------------------------------------------- /
!/ Parameter list
!/
      implicit none
      type(ESMF_GridComp) :: gcomp
      integer,intent(out) :: rc
!/
!/ ------------------------------------------------------------------- /
!/ Local parameters
!/
      !NONE
!
! -------------------------------------------------------------------- /
! Prep
!
      rc = ESMF_SUCCESS

! --- Initialize wallclock timers

      wtnam( 1) = 'InitializeP0'
      wtnam( 2) = 'InitializeP1'
      wtnam( 3) = 'InitializeP3'
      wtnam( 4) = 'DataInitialize'
      wtnam( 5) = 'ModelAdvance'
      wtnam( 6) = 'Finalize'
      wtnam( 7) = 'GetImport'
      wtnam( 8) = 'SetExport'
      wtnam( 9) = 'FieldGather'
      wtnam(10) = 'FieldFill'
      wtcnt( :) = 0
      wtime( :) = 0d0
!
! -------------------------------------------------------------------- /
! 1.  NUOPC model component will register the generic methods
!
      call NUOPC_CompDerive(gcomp, parent_SetServices, rc=rc)
      if (ESMF_LogFoundError(rc, PASSTHRU)) return
!
! -------------------------------------------------------------------- /
! 2.  Set model entry points
!
! --- Initialize - phase 0 (requires use of ESMF method)

      call ESMF_GridCompSetEntryPoint(gcomp, ESMF_METHOD_INITIALIZE, &
        userRoutine=InitializeP0, phase=0, rc=rc)
      if (ESMF_LogFoundError(rc, PASSTHRU)) return

! --- Set entry points for initialize methods

      ! >= IPDv03 supports satisfying inter-model data dependencies and
      ! the transfer of ESMF Grid & Mesh objects between Model and/or
      ! Mediator components during initialization
      ! IPDv03p1: advertise import & export fields
      call NUOPC_CompSetEntryPoint(gcomp, ESMF_METHOD_INITIALIZE, &
        phaseLabelList=(/"IPDv03p1"/), userRoutine=InitializeP1, rc=rc)
      if (ESMF_LogFoundError(rc, PASSTHRU)) return
      ! IPDv03p2: unspecified by NUOPC -- not required
      ! IPDv03p3: realize import & export fields
      call NUOPC_CompSetEntryPoint(gcomp, ESMF_METHOD_INITIALIZE, &
        phaseLabelList=(/"IPDv03p3"/), userRoutine=InitializeP3, rc=rc)
      if (ESMF_LogFoundError(rc, PASSTHRU)) return
      ! IPDv03p4: relevant for TransferActionGeomObject=="accept"
      ! IPDv03p5: relevant for TransferActionGeomObject=="accept"
      ! IPDv03p6: check compatibility of fields connected status
      ! IPDv03p7: handle field data initialization

!
! -------------------------------------------------------------------- /
! 3.  Register specializing methods
!
! --- Model initialize export data method

      call NUOPC_CompSpecialize(gcomp, specLabel=label_DataInitialize, &
        specRoutine=DataInitialize, rc=rc)
      if (ESMF_LogFoundError(rc, PASSTHRU)) return

! --- Model checkImport method (overriding default)

      call ESMF_MethodRemove(gcomp, label_CheckImport, rc=rc)
      if (ESMF_LogFoundError(rc, PASSTHRU)) return
      call NUOPC_CompSpecialize(gcomp, specLabel=label_CheckImport, &
        specRoutine=NUOPC_NoOp, rc=rc)
      if (ESMF_LogFoundError(rc, PASSTHRU)) return
      
! --- Model advance method

      call NUOPC_CompSpecialize(gcomp, specLabel=label_Advance, &
        specRoutine=ModelAdvance, rc=rc)
      if (ESMF_LogFoundError(rc, PASSTHRU)) return

! --- Model finalize method

      call NUOPC_CompSpecialize(gcomp, specLabel=label_Finalize, &
        specRoutine=Finalize, rc=rc)
      if (ESMF_LogFoundError(rc, PASSTHRU)) return
!
! -------------------------------------------------------------------- /
! Post
!
      rc = ESMF_SUCCESS
!/
!/ End of SetServices ------------------------------------------------ /
!/
      end subroutine SetServices
!/ ------------------------------------------------------------------- /
#undef METHOD
#define METHOD "InitializeP0"
      subroutine InitializeP0 ( gcomp, impState, expState, extClock, rc )
!/
!/                  +-----------------------------------+
!/                  | WAVEWATCH III           NOAA/NCEP |
!/                  |        T. J. Campbell, NRL        |
!/                  |                        FORTRAN 90 |
!/                  | Last update :         20-Jan-2017 |
!/                  +-----------------------------------+
!/
!/    20-Jan-2017 : Origination.                        ( version 6.02 )
!/
!  1. Purpose :
!
!     Initialize wave model (phase 0)
!     * Define the NUOPC Initialize Phase Mapping
!
!  2. Method :
!
!  3. Parameters :
!
!     Parameter list
!     ----------------------------------------------------------------
!       gcomp     Type   I/O Gridded component
!       impState  Type   I/O Import state
!       expState  Type   I/O Export state
!       extClock  Type   I   External clock
!       rc        Int.   O   Return code
!     ----------------------------------------------------------------
!
!  4. Subroutines used :
!
!      Name      Type  Module   Description
!     ----------------------------------------------------------------
!      NONE
!     ----------------------------------------------------------------
!
!  5. Called by :
!
!  6. Error messages :
!
!  7. Remarks :
!
!  8. Structure :
!
!  9. Switches :
!
! 10. Source code :
!
!/ ------------------------------------------------------------------- /
!/
!/ ------------------------------------------------------------------- /
!/ Parameter list
!/
      implicit none
      type(ESMF_GridComp) :: gcomp
      type(ESMF_State)    :: impState
      type(ESMF_State)    :: expState
      type(ESMF_Clock)    :: extClock
      integer,intent(out) :: rc
!/
!/ ------------------------------------------------------------------- /
!/ Local parameters
!/
      character(ESMF_MAXSTR) :: cname
      character(ESMF_MAXSTR) :: valueString
      integer, parameter :: iwt=1
      real(8) :: wstime, wftime
!
! -------------------------------------------------------------------- /
! Prep
!
      rc = ESMF_SUCCESS
      call ESMF_VMWtime(wstime)
      call ESMF_GridCompGet(gcomp, name=cname, rc=rc)
      if (ESMF_LogFoundError(rc, PASSTHRU)) return
!
! -------------------------------------------------------------------- /
! Determine verbosity
!
      call NUOPC_CompAttributeGet(gcomp, name='Verbosity', &
        value=valueString, rc=rc)
      if (ESMF_LogFoundError(rc, PASSTHRU)) return
      verbosity = ESMF_UtilString2Int( valueString, &
        specialStringList=(/'high','max '/), &
        specialValueList=(/    255,   255/), rc=rc )
      if (ESMF_LogFoundError(rc, PASSTHRU)) return

      if (verbosity.gt.0) call ESMF_LogWrite(trim(cname)// &
        ': entered InitializeP0', ESMF_LOGMSG_INFO)
!
! -------------------------------------------------------------------- /
! Define initialization phases
! * switch to IPDv03 by filtering all other phaseMap entries
!
      call NUOPC_CompFilterPhaseMap(gcomp, ESMF_METHOD_INITIALIZE, &
        acceptStringList=(/"IPDv03p"/), rc=rc)
      if (ESMF_LogFoundError(rc, PASSTHRU)) return
!
! -------------------------------------------------------------------- /
! Post
!
      rc = ESMF_SUCCESS
      call ESMF_VMWtime(wftime)
      wtime(iwt) = wtime(iwt) + wftime - wstime
      wtcnt(iwt) = wtcnt(iwt) + 1
      if (verbosity.gt.0) call ESMF_LogWrite(trim(cname)// &
        ': leaving InitializeP0', ESMF_LOGMSG_INFO)
!/
!/ End of InitializeP0 ----------------------------------------------- /
!/
      end subroutine InitializeP0
!/ ------------------------------------------------------------------- /
#undef METHOD
#define METHOD "InitializeP1"
      subroutine InitializeP1 ( gcomp, impState, expState, extClock, rc )
!/
!/                  +-----------------------------------+
!/                  | WAVEWATCH III           NOAA/NCEP |
!/                  |        T. J. Campbell, NRL        |
!/                  |                        FORTRAN 90 |
!/                  | Last update :         09-Aug-2017 |
!/                  +-----------------------------------+
!/
!/    20-Jan-2017 : Origination.                        ( version 6.02 )
!/    09-Aug-2017 : Add ocean forcing export fields     ( version 6.03 )
!/
!  1. Purpose :
!
!     Initialize wave model (phase 1)
!     * Advertise fields in import and export states.
!
!  2. Method :
!
!  3. Parameters :
!
!     Parameter list
!     ----------------------------------------------------------------
!       gcomp     Type   I/O Gridded component
!       impState  Type   I/O Import state
!       expState  Type   I/O Export state
!       extClock  Type   I   External clock
!       rc        Int.   O   Return code
!     ----------------------------------------------------------------
!
!  4. Subroutines used :
!
!      Name            Type  Module   Description
!     ----------------------------------------------------------------
!      WMINIT          Subr. WMINITMD Wave model initialization
!      WMINITNML       Subr. WMINITMD Wave model initialization
!     ----------------------------------------------------------------
!
!  5. Called by :
!
!  6. Error messages :
!
!  7. Remarks :
!
!  8. Structure :
!
!     ----------------------------------------------------------------
!      1.  Initialization necessary for driver
!        a General I/O: (implicit in WMMDATMD)
!        b MPI environment
!        c Identifying output to "screen" unit
!      2.  Initialization of all wave models / grids
!      3.  Advertise import fields
!      4.  Advertise export fields
!     ----------------------------------------------------------------
!
!  9. Switches :
!
! 10. Source code :
!
!/ ------------------------------------------------------------------- /
!/
!/ ------------------------------------------------------------------- /
!/ Parameter list
!/
      implicit none
      type(ESMF_GridComp) :: gcomp
      type(ESMF_State)    :: impState
      type(ESMF_State)    :: expState
      type(ESMF_Clock)    :: extClock
      integer,intent(out) :: rc
!/
!/ ------------------------------------------------------------------- /
!/ Local parameters
!/
      character(ESMF_MAXSTR) :: cname
      integer, parameter :: iwt=2
      real(8) :: wstime, wftime
      integer :: idsi, idso, idss, idst, idse
      integer :: mpiComm = -99
      logical :: configIsPresent
      type(ESMF_Config) :: config
      character(ESMF_MAXSTR) :: wrkdir = '.'
      character(ESMF_MAXSTR) :: preamb = '.'
      character(ESMF_MAXSTR) :: ifname = 'ww3_multi.inp'
      logical :: lsep_ss = .true.
      logical :: lsep_st = .true.
      logical :: lsep_se = .true.
      character(ESMF_MAXSTR) :: attstr
      integer(ESMF_KIND_I4) :: yy,mm,dd,h,m,s
      type(ESMF_Time) :: ttmp, cttmp
      type(ESMF_TimeInterval) :: tstep, etstep
      integer :: i, j, n, istep, imod, jmod
      integer, allocatable :: cplmap(:,:)
      logical :: includeObg, includeAbg, includeIbg
!
! -------------------------------------------------------------------- /
! Prep
!
      rc = ESMF_SUCCESS
      call ESMF_VMWtime(wstime)
      call ESMF_GridCompGet(gcomp, name=cname, rc=rc)
      if (ESMF_LogFoundError(rc, PASSTHRU)) return
      if (verbosity.gt.0) call ESMF_LogWrite(trim(cname)// &
        ': entered InitializeP1', ESMF_LOGMSG_INFO)
!
! -------------------------------------------------------------------- /
! 1.  Initialization necessary for driver
!
! 1.a Set global flag indicating that model is an ESMF Component
!
      is_esmf_component = .true.
      zeroValue = real(0,ESMF_KIND_RX)
      missingValue = real(0,ESMF_KIND_RX)
!
!
! 1.b Get MPI environment from ESMF VM and set WW3 MPI related variables
!
      call ESMF_GridCompGet(gcomp, vm=vm, rc=rc)
      if (ESMF_LogFoundError(rc, PASSTHRU)) return
      call ESMF_VMGet(vm, petCount=npet, localPet=lpet, &
        mpiCommunicator=mpiComm, rc=rc)
      if (ESMF_LogFoundError(rc, PASSTHRU)) return
      nmproc = npet
      improc = lpet + 1
      nmpscr = 1
      if ( improc .eq. nmpscr ) write (*,900)
!
! 1.c Get background model info
!
#if defined(COAMPS)
      call ESMF_AttributeGet(gcomp, name="OcnBackground", &
        value=attstr, defaultValue="none", &
        convention="COAMPS", purpose="General", rc=rc)
      if (ESMF_LogFoundError(rc, PASSTHRU)) return
      includeObg = trim(attstr).eq."model"
      call ESMF_AttributeGet(gcomp, name="AtmBackground", &
        value=attstr, defaultValue="none", &
        convention="COAMPS", purpose="General", rc=rc)
      if (ESMF_LogFoundError(rc, PASSTHRU)) return
      includeAbg = trim(attstr).eq."model"
      call ESMF_AttributeGet(gcomp, name="IceBackground", &
        value=attstr, defaultValue="none", &
        convention="COAMPS", purpose="General", rc=rc)
      if (ESMF_LogFoundError(rc, PASSTHRU)) return
      includeIbg = trim(attstr).eq."model"
      call ESMF_AttributeGet(gcomp, name="MissingValue", &
        value=missingValue, defaultValue=real(0,ESMF_KIND_RX), &
        convention="COAMPS", purpose="General", rc=rc)
      if (ESMF_LogFoundError(rc, PASSTHRU)) return
#else
      includeObg = .false.
      includeAbg = .false.
      includeIbg = .false.
#endif
!
! 1.d Config input
!
      call ESMF_GridCompGet(gcomp, configIsPresent=configIsPresent, rc=rc)
      if (ESMF_LogFoundError(rc, PASSTHRU)) return
      if (configIsPresent) then
        call ESMF_GridCompGet(gcomp, config=config, rc=rc)
        if (ESMF_LogFoundError(rc, PASSTHRU)) return
        ! working directory
        call ESMF_ConfigGetAttribute(config, wrkdir, &
          label=trim(cname)//'_work_dir:', default='.', rc=rc)
        if (ESMF_LogFoundError(rc, PASSTHRU)) return
        ! I/O options
        call ESMF_ConfigGetAttribute(config, ifname, &
          label=trim(cname)//'_input_file_name:', &
          default='ww3_multi.inp', rc=rc)
        if (ESMF_LogFoundError(rc, PASSTHRU)) return
        call ESMF_ConfigGetAttribute(config, lsep_ss, &
          label=trim(cname)//'_stdo_output_to_file:', default=.false., rc=rc)
        if (ESMF_LogFoundError(rc, PASSTHRU)) return
        call ESMF_ConfigGetAttribute(config, lsep_st, &
          label=trim(cname)//'_test_output_to_file:', default=.false., rc=rc)
        if (ESMF_LogFoundError(rc, PASSTHRU)) return
        call ESMF_ConfigGetAttribute(config, lsep_se, &
          label=trim(cname)//'_error_output_to_file:', default=.false., rc=rc)
        if (ESMF_LogFoundError(rc, PASSTHRU)) return
        ! export grid id
        call ESMF_ConfigGetAttribute(config, expGridID, &
          label=trim(cname)//'_export_grid_id:', default=1, rc=rc)
        if (ESMF_LogFoundError(rc, PASSTHRU)) return
        ! realize all export flag
        call ESMF_ConfigGetAttribute(config, realizeAllExport, &
          label=trim(cname)//'_realize_all_export:', default=.false., rc=rc)
        if (ESMF_LogFoundError(rc, PASSTHRU)) return
        ! grid mask convention
        call ESMF_ConfigGetAttribute(config, maskValueWater, &
          label='mask_value_water:', default=DEFAULT_MASK_WATER, rc=rc)
        if (ESMF_LogFoundError(rc, PASSTHRU)) return
        call ESMF_ConfigGetAttribute(config, maskValueLand, &
          label='mask_value_land:', default=DEFAULT_MASK_LAND, rc=rc)
        if (ESMF_LogFoundError(rc, PASSTHRU)) return
        ! z-level file
        call ESMF_ConfigGetAttribute(config, zlfile, &
          label=trim(cname)//'_zlevel_exp_file:', default='none', rc=rc)
        if (ESMF_LogFoundError(rc, PASSTHRU)) return
      endif
!     preamb = trim(wrkdir)//'/'
      preamb = trim(preamb)//'/' !TODO: have separate paths for .inp, logs and data?
!
! 1.e Set internal start/stop time from external start/stop time
!

      call ESMF_ClockGet(extClock, startTime=ttmp, rc=rc)
      if (ESMF_LogFoundError(rc, PASSTHRU)) return
      call ESMF_ClockGet(extClock, currTime=cttmp, rc=rc)
      if (ESMF_LogFoundError(rc, PASSTHRU)) return
!
! Adjust internal start time to currTime in case of delayed start
!
      if ( cttmp.gt.ttmp ) ttmp=cttmp 
      call ESMF_TimeGet(ttmp, yy=yy,mm=mm,dd=dd,h=h,m=m,s=s, rc=rc)
      if (ESMF_LogFoundError(rc, PASSTHRU)) return
      stime(1) = 10000*yy + 100*mm + dd
      stime(2) = 10000*h  + 100*m  + s

      call ESMF_ClockGet(extClock, stopTime=ttmp, rc=rc)
      if (ESMF_LogFoundError(rc, PASSTHRU)) return
      call ESMF_TimeGet(ttmp, yy=yy,mm=mm,dd=dd,h=h,m=m,s=s, rc=rc)
      if (ESMF_LogFoundError(rc, PASSTHRU)) return
      etime(1) = 10000*yy + 100*mm + dd
      etime(2) = 10000*h  + 100*m  + s
!
! 1.f Identify available unit numbers
! Each ESMF_UtilIOUnitGet is followed by an OPEN statement for that
! unit so that subsequent ESMF_UtilIOUnitGet calls do not return the
! the same unit.  After getting all the available unit numbers, close
! the units since they will be opened within WMINIT.
!
      call ESMF_UtilIOUnitGet(idsi); open(unit=idsi, status='scratch');
      call ESMF_UtilIOUnitGet(idso); open(unit=idso, status='scratch');
      call ESMF_UtilIOUnitGet(idss); open(unit=idss, status='scratch');
      call ESMF_UtilIOUnitGet(idst); open(unit=idst, status='scratch');
      call ESMF_UtilIOUnitGet(idse); open(unit=idse, status='scratch');
      close(idsi); close(idso); close(idss); close(idst); close(idse);
!
! -------------------------------------------------------------------- /
! 2.  Initialization of all wave models / grids
!
! 2.a Call into WMINIT
!     
      if ( .not.lsep_ss ) idss = stdo
      if ( .not.lsep_st ) idst = stdo
      if ( .not.lsep_se ) idse = stdo
      if ( trim(ifname).eq.'ww3_multi.nml' ) then
        call wminitnml ( idsi, idso, idss, idst, idse, trim(ifname), &
                         mpicomm, preamb=preamb )
      else
        call wminit ( idsi, idso, idss, idst, idse, trim(ifname), &
                      mpicomm, preamb=preamb )
      endif
!
! 2.b Check consistency between internal timestep and external
!     timestep (coupling interval)
!
      call ESMF_ClockGet(extClock, timeStep=etstep, rc=rc)
      if (ESMF_LogFoundError(rc, PASSTHRU)) return
!
! 2.c Trap unsupported CPL input forcing settings
!
      if ( any(inpmap.lt.0) ) then
        if ( nrgrd.gt.1 ) then
          if ( any(inpmap.eq.-999) ) then
            write (msg,'(a)') 'CPL input forcing defined on a '// &
              'native grid is not supported with multiple model grids'
            if ( improc .eq. nmpscr ) write (idse,'(a)') trim(msg)
            call ESMF_LogWrite(trim(msg), ESMF_LOGMSG_ERROR)
            rc = ESMF_FAILURE
            return
          endif
        endif
        allocate (cplmap(nrgrd,jfirst:8), stat=rc)
        if (ESMF_LogFoundAllocError(rc, PASSTHRU)) return
        jmod = minval(inpmap)
        cplmap = inpmap
        where ( inpmap.lt.0 ) cplmap = jmod
        if ( any(inpmap.ne.cplmap) ) then
          write (msg,'(a)') 'All CPL input forcing must be '// &
            'defined on the same grid'
          if ( improc .eq. nmpscr ) write (idse,'(a)') trim(msg)
          call ESMF_LogWrite(trim(msg), ESMF_LOGMSG_ERROR)
          rc = ESMF_FAILURE
          return
        endif
        deallocate (cplmap, stat=rc)
        if (ESMF_LogFoundDeallocError(rc, PASSTHRU)) return
      endif
!
! -------------------------------------------------------------------- /
! 3.  Initialize import field list
!
      istep_import: do istep = 1, 2
      
      if ( istep.eq.2 ) then
        allocate ( impFieldName(numImpFields), &
                   impFieldStdName(numImpFields), &
                   impFieldInitRqrd(numImpFields), &
                   impFieldActive(numImpFields), &
                   impField(numImpFields), &
                   stat=rc )
        if (ESMF_LogFoundAllocError(rc, PASSTHRU)) return
        allocate ( mbgFieldName(numImpFields), &
                   mbgFieldStdName(numImpFields), &
                   mbgFieldActive(numImpFields), &
                   mbgField(numImpFields), &
                   bmskField(numImpFields), &
                   stat=rc )
        if (ESMF_LogFoundAllocError(rc, PASSTHRU)) return
        impFieldActive(:) = .false.
      endif
      i = 0

      i = i + 1
      if ( istep.eq.2 ) then
        j = 1
        impFieldActive(i)   = any(inpmap(:,j).lt.0)
        impFieldName(i)     = 'seahgt'
        impFieldStdName(i)  = 'sea_surface_height_above_sea_level'
        impFieldInitRqrd(i) = .true.
        mbgFieldActive(i)   = impFieldActive(i).and.includeObg
      endif

      i = i + 1
      if ( istep.eq.2 ) then
        j = 2
        impFieldActive(i)   = any(inpmap(:,j).lt.0)
        impFieldName(i)     = 'uucurr'
        impFieldStdName(i)  = 'surface_eastward_sea_water_velocity'
        impFieldInitRqrd(i) = .true.
        mbgFieldActive(i)   = impFieldActive(i).and.includeObg
      endif

      i = i + 1
      if ( istep.eq.2 ) then
        j = 2
        impFieldActive(i)   = any(inpmap(:,j).lt.0)
        impFieldName(i)     = 'vvcurr'
        impFieldStdName(i)  = 'surface_northward_sea_water_velocity'
        impFieldInitRqrd(i) = .true.
        mbgFieldActive(i)   = impFieldActive(i).and.includeObg
      endif

      i = i + 1
      if ( istep.eq.2 ) then
        j = 3
        impFieldActive(i)   = any(inpmap(:,j).lt.0)
        impFieldName(i)     = 'uutrue'
        impFieldStdName(i)  = 'eastward_wind_at_10m_height'
        impFieldInitRqrd(i) = .true.
        mbgFieldActive(i)   = impFieldActive(i).and.includeAbg
      endif

      i = i + 1
      if ( istep.eq.2 ) then
        j = 3
        impFieldActive(i)   = any(inpmap(:,j).lt.0)
        impFieldName(i)     = 'vvtrue'
        impFieldStdName(i)  = 'northward_wind_at_10m_height'
        impFieldInitRqrd(i) = .true.
        mbgFieldActive(i)   = impFieldActive(i).and.includeAbg
      endif

      i = i + 1
      if ( istep.eq.2 ) then
        j = 4
        impFieldActive(i)   = any(inpmap(:,j).lt.0)
        impFieldName(i)     = 'seaice'
        impFieldStdName(i)  = 'sea_ice_concentration'
        impFieldInitRqrd(i) = .true.
        mbgFieldActive(i)   = impFieldActive(i).and.includeIbg
      endif

      numImpFields = i
      enddo istep_import

      noActiveImpFields = all(.not.impFieldActive)

      do i = 1,numImpFields
        mbgFieldName(i) = 'mbg_'//trim(impFieldName(i))
        mbgFieldStdName(i) = 'mbg_'//trim(impFieldStdName(i))
      enddo
!
! -------------------------------------------------------------------- /
! 4.  Initialize export field list
!
      istep_export: do istep = 1, 2
      
      if ( istep.eq.2 ) then
        allocate ( expFieldName(numExpFields), &
                   expFieldStdName(numExpFields), &
                   expFieldDim(numExpFields), &
                   expFieldActive(numExpFields), &
                   expField(numExpFields), &
                   stat=rc )
        if (ESMF_LogFoundAllocError(rc, PASSTHRU)) return
        expFieldActive(:) = .false.
      endif
      i = 0

      i = i + 1
      if ( istep.eq.2 ) then
        expFieldName(i)    = 'charno'
        expFieldStdName(i) = 'wave_induced_charnock_parameter'
        expFieldDim(i)     = 2
      endif

      i = i + 1
      if ( istep.eq.2 ) then
        expFieldName(i)    = 'z0rlen'
        expFieldStdName(i) = 'wave_z0_roughness_length'
        expFieldDim(i)     = 2
      endif

      i = i + 1
      if ( istep.eq.2 ) then
        expFieldName(i)    = 'uscurr'
        expFieldStdName(i) = 'eastward_stokes_drift_current'
        expFieldDim(i)     = 3
      endif

      i = i + 1
      if ( istep.eq.2 ) then
        expFieldName(i)    = 'vscurr'
        expFieldStdName(i) = 'northward_stokes_drift_current'
        expFieldDim(i)     = 3
      endif

      i = i + 1
      if ( istep.eq.2 ) then
        expFieldName(i)    = 'x1pstk'
        expFieldStdName(i) = 'eastward_partitioned_stokes_drift_1'
        expFieldDim(i)     = 2
      endif

      i = i + 1
      if ( istep.eq.2 ) then
        expFieldName(i)    = 'y1pstk'
        expFieldStdName(i) = 'northward_partitioned_stokes_drift_1'
        expFieldDim(i)     = 2
      endif

      i = i + 1
      if ( istep.eq.2 ) then
        expFieldName(i)    = 'x2pstke'
        expFieldStdName(i) = 'eastward_partitioned_stokes_drift_2'
        expFieldDim(i)     = 2
      endif

      i = i + 1
      if ( istep.eq.2 ) then
        expFieldName(i)    = 'y2pstk'
        expFieldStdName(i) = 'northward_partitioned_stokes_drift_2'
        expFieldDim(i)     = 2
      endif

      i = i + 1
      if ( istep.eq.2 ) then
        expFieldName(i)    = 'x3pstk'
        expFieldStdName(i) = 'eastward_partitioned_stokes_drift_3'
        expFieldDim(i)     = 2
      endif

      i = i + 1
      if ( istep.eq.2 ) then
        expFieldName(i)    = 'y3pstk'
        expFieldStdName(i) = 'northward_partitioned_stokes_drift_3'
        expFieldDim(i)     = 2
      endif

      i = i + 1
      if ( istep.eq.2 ) then
        expFieldName(i)    = 'wbcuru'
        expFieldStdName(i) = 'eastward_wave_bottom_current'
        expFieldDim(i)     = 2
      endif

      i = i + 1
      if ( istep.eq.2 ) then
        expFieldName(i)    = 'wbcurv'
        expFieldStdName(i) = 'northward_wave_bottom_current'
        expFieldDim(i)     = 2
      endif

      i = i + 1
      if ( istep.eq.2 ) then
        expFieldName(i)    = 'wbcurp'
        expFieldStdName(i) = 'wave_bottom_current_period'
        expFieldDim(i)     = 2
      endif

      i = i + 1
      if ( istep.eq.2 ) then
        expFieldName(i)    = 'wavsuu'
        expFieldStdName(i) = 'eastward_wave_radiation_stress'
        expFieldDim(i)     = 2
      endif

      i = i + 1
      if ( istep.eq.2 ) then
        expFieldName(i)    = 'wavsuv'
        expFieldStdName(i) = 'eastward_northward_wave_radiation_stress'
        expFieldDim(i)     = 2
      endif

      i = i + 1
      if ( istep.eq.2 ) then
        expFieldName(i)    = 'wavsvv'
        expFieldStdName(i) = 'northward_wave_radiation_stress'
        expFieldDim(i)     = 2
      endif

      numExpFields = i
      enddo istep_export

      noActiveExpFields = all(.not.expFieldActive)
!
! -------------------------------------------------------------------- /
! 5.  Advertise import fields
!
! 5.a Advertise active import fields
!
      n = 0
      do i = 1,numImpFields
        if (.not.impFieldActive(i)) cycle
        n = n + 1
        call NUOPC_Advertise(impState, &
          trim(impFieldStdName(i)), name=trim(impFieldName(i)), rc=rc)
        if (ESMF_LogFoundError(rc, PASSTHRU)) return
        if (.not.mbgFieldActive(i)) cycle
        n = n + 1
        call NUOPC_Advertise(impState, &
          trim(mbgFieldStdName(i)), name=trim(mbgFieldName(i)), rc=rc)
        if (ESMF_LogFoundError(rc, PASSTHRU)) return
      enddo
!
! 5.b Report advertised import fields
!
      write(msg,'(a,i0,a)') trim(cname)// &
        ': List of advertised import fields(',n,'):'
      call ESMF_LogWrite(trim(msg), ESMF_LOGMSG_INFO)
      write(msg,'(a,a5,a,a10,a3,a)') trim(cname)// &
        ': ','index',' ','name',' ','standardName'
      call ESMF_LogWrite(trim(msg), ESMF_LOGMSG_INFO)
      n = 0
      do i = 1,numImpFields
        if (.not.impFieldActive(i)) cycle
        n = n + 1
        write(msg,'(a,i5,a,a10,a3,a)') trim(cname)//': ',n, &
          ' ',trim(impFieldName(i)),' ',trim(impFieldStdName(i))
        call ESMF_LogWrite(trim(msg), ESMF_LOGMSG_INFO)
        if (.not.mbgFieldActive(i)) cycle
        n = n + 1
        write(msg,'(a,i5,a,a10,a3,a)') trim(cname)//': ',n, &
          ' ',trim(mbgFieldName(i)),' ',trim(mbgFieldStdName(i))
        call ESMF_LogWrite(trim(msg), ESMF_LOGMSG_INFO)
      enddo
!
! -------------------------------------------------------------------- /
! 6.  Advertise export fields
!
! 6.a Advertise all export fields
!
      do i = 1,numExpFields
        call NUOPC_Advertise(expState, &
          trim(expFieldStdName(i)), name=trim(expFieldName(i)), rc=rc)
        if (ESMF_LogFoundError(rc, PASSTHRU)) return
      enddo
!
! 6.b Report advertised export fields
!
      write(msg,'(a,i0,a)') trim(cname)// &
        ': List of advertised export fields(',numExpFields,'):'
      call ESMF_LogWrite(trim(msg), ESMF_LOGMSG_INFO)
      write(msg,'(a,a5,a,a10,a3,a)') trim(cname)// &
        ': ','index',' ','name',' ','standardName'
      call ESMF_LogWrite(trim(msg), ESMF_LOGMSG_INFO)
      do i = 1,numExpFields
        write(msg,'(a,i5,a,a10,a3,a)') trim(cname)//': ',i, &
          ' ',trim(expFieldName(i)),' ',trim(expFieldStdName(i))
        call ESMF_LogWrite(trim(msg), ESMF_LOGMSG_INFO)
      enddo
!
! -------------------------------------------------------------------- /
! Post
!
      rc = ESMF_SUCCESS
      call ESMF_VMWtime(wftime)
      wtime(iwt) = wtime(iwt) + wftime - wstime
      wtcnt(iwt) = wtcnt(iwt) + 1
      if (verbosity.gt.0) call ESMF_LogWrite(trim(cname)// &
        ': leaving InitializeP1', ESMF_LOGMSG_INFO)
!
! -------------------------------------------------------------------- /
! Formats
!
  900 format (/15x,'     *** WAVEWATCH III Multi-grid shell ***    '/ &
               15x,'================================================='/)
!/
!/ End of InitializeP1 ----------------------------------------------- /
!/
      end subroutine InitializeP1
!/ ------------------------------------------------------------------- /
#undef METHOD
#define METHOD "InitializeP3"
      subroutine InitializeP3 ( gcomp, impState, expState, extClock, rc )
!/
!/                  +-----------------------------------+
!/                  | WAVEWATCH III           NOAA/NCEP |
!/                  |        T. J. Campbell, NRL        |
!/                  |     A. J. van der Westhuysen      |
!/                  |                        FORTRAN 90 |
!/                  | Last update :         09-Aug-2017 |
!/                  +-----------------------------------+
!/
!/    20-Jan-2017 : Origination.                        ( version 6.02 )
!/    09-Aug-2017 : Update 3D export field setup        ( version 6.03 )
!/    28-Feb-2018 : Modifications for unstruc meshes    ( version 6.06 )  
!/
!  1. Purpose :
!
!     Initialize wave model (phase 3)
!     * Realize fields in import and export states.
!
!  2. Method :
!
!  3. Parameters :
!
!     Parameter list
!     ----------------------------------------------------------------
!       gcomp     Type   I/O Gridded component
!       impState  Type   I/O Import state
!       expState  Type   I/O Export state
!       extClock  Type   I   External clock
!       rc        Int.   O   Return code
!     ----------------------------------------------------------------
!
!  4. Subroutines used :
!
!      Name            Type  Module   Description
!     ----------------------------------------------------------------
!      WMINIT          Subr. WMINITMD Wave model initialization
!      WMINITNML       Subr. WMINITMD Wave model initialization
!     ----------------------------------------------------------------
!
!  5. Called by :
!
!  6. Error messages :
!
!  7. Remarks :
!
!  8. Structure :
!
!  9. Switches :
!
! 10. Source code :
!
!/ ------------------------------------------------------------------- /
!/
!/ ------------------------------------------------------------------- /
!/ Parameter list
!/
      implicit none
      type(ESMF_GridComp) :: gcomp
      type(ESMF_State)    :: impState
      type(ESMF_State)    :: expState
      type(ESMF_Clock)    :: extClock
      integer,intent(out) :: rc
!/
!/ ------------------------------------------------------------------- /
!/ Local parameters
!/
      character(ESMF_MAXSTR) :: cname
      integer, parameter :: iwt=3
      real(8) :: wstime, wftime
      integer :: i1, i2, i3, i, n
      logical :: isConnected
!
! -------------------------------------------------------------------- /
! Prep
!
      rc = ESMF_SUCCESS
      call ESMF_VMWtime(wstime)
      call ESMF_GridCompGet(gcomp, name=cname, rc=rc)
      if (ESMF_LogFoundError(rc, PASSTHRU)) return
      if (verbosity.gt.0) call ESMF_LogWrite(trim(cname)// &
        ': entered InitializeP3', ESMF_LOGMSG_INFO)
!
! -------------------------------------------------------------------- /
! 1.  Realize active import fields
!
! 1.a Create ESMF grid for import fields
!
      if ( (GTYPE.eq.RLGTYPE).or.(GTYPE.eq.CLGTYPE) ) then
         write(msg,'(a)') trim(cname)// &
           ': Creating import grid for Reg/Curvilinear Mode'
         call ESMF_LogWrite(trim(msg), ESMF_LOGMSG_INFO)
         call CreateImpGrid( gcomp, rc=rc )
         if (ESMF_LogFoundError(rc, PASSTHRU)) return
      elseif (GTYPE.eq.UNGTYPE) then
         write(msg,'(a)') trim(cname)// &
           ': Creating import mesh for Unstructured Mode'
         call ESMF_LogWrite(trim(msg), ESMF_LOGMSG_INFO)
         call CreateImpMesh( gcomp, rc=rc )
         if (ESMF_LogFoundError(rc, PASSTHRU)) return
      endif
!
! 1.b Create import fields and realize
!
      n = 0
      do i = 1,numImpFields
        if (.not.impFieldActive(i)) cycle
        n = n + 1
        if ( (GTYPE.eq.RLGTYPE).or.(GTYPE.eq.CLGTYPE) ) then
           impField(i) = ESMF_FieldCreate( impGrid, impArraySpec2D, &
             totalLWidth=impHaloLWidth, totalUWidth=impHaloUWidth, &
             staggerLoc=impStaggerLoc, indexFlag=impIndexFlag, &
             name=trim(impFieldName(i)), rc=rc )
           if (ESMF_LogFoundError(rc, PASSTHRU)) return
           call FieldFill( impField(i), zeroValue, rc=rc )
           if (ESMF_LogFoundError(rc, PASSTHRU)) return
        elseif (GTYPE.eq.UNGTYPE) then
           impField(i) = ESMF_FieldCreate( impMesh, &
             typekind=ESMF_TYPEKIND_RX, name=trim(impFieldName(i)), rc=rc)
           if (ESMF_LogFoundError(rc, PASSTHRU)) return
           call FieldFill( impField(i), zeroValue, rc=rc )
           if (ESMF_LogFoundError(rc, PASSTHRU)) return
        endif
        call NUOPC_Realize( impState, impField(i), rc=rc )
        if (ESMF_LogFoundError(rc, PASSTHRU)) return
        if ( (GTYPE.eq.RLGTYPE).or.(GTYPE.eq.CLGTYPE) ) then
           if (.not.mbgFieldActive(i)) cycle
           n = n + 1
           mbgField(i) = ESMF_FieldCreate( impGrid, impArraySpec2D, &
             totalLWidth=impHaloLWidth, totalUWidth=impHaloUWidth, &
             staggerLoc=impStaggerLoc, indexFlag=impIndexFlag, &
             name=trim(mbgFieldName(i)), rc=rc )
           if (ESMF_LogFoundError(rc, PASSTHRU)) return
           call FieldFill( mbgField(i), zeroValue, rc=rc )
           if (ESMF_LogFoundError(rc, PASSTHRU)) return
           call NUOPC_Realize( impState, mbgField(i), rc=rc )
           if (ESMF_LogFoundError(rc, PASSTHRU)) return
           bmskField(i) = ESMF_FieldCreate( impGrid, impArraySpec2D, &
             totalLWidth=impHaloLWidth, totalUWidth=impHaloUWidth, &
             staggerLoc=impStaggerLoc, indexFlag=impIndexFlag, &
             name='bmsk_'//trim(impFieldName(i)), rc=rc )
           if (ESMF_LogFoundError(rc, PASSTHRU)) return
        endif
      enddo
!
! 1.c Report realized import fields
!
      write(msg,'(a,i0,a)') trim(cname)// &
        ': List of realized import fields(',n,'):'
      call ESMF_LogWrite(trim(msg), ESMF_LOGMSG_INFO)
      write(msg,'(a,a5,a,a10,a3,a)') trim(cname)// &
        ': ','index',' ','name',' ','standardName'
      call ESMF_LogWrite(trim(msg), ESMF_LOGMSG_INFO)
      n = 0
      do i = 1,numImpFields
        if (.not.impFieldActive(i)) cycle
        n = n + 1
        write(msg,'(a,i5,a,a10,a3,a)') trim(cname)//': ',n, &
          ' ',trim(impFieldName(i)),' ',trim(impFieldStdName(i))
        call ESMF_LogWrite(trim(msg), ESMF_LOGMSG_INFO)
        if (.not.mbgFieldActive(i)) cycle
        n = n + 1
        write(msg,'(a,i5,a,a10,a3,a)') trim(cname)//': ',n, &
          ' ',trim(mbgFieldName(i)),' ',trim(mbgFieldStdName(i))
        call ESMF_LogWrite(trim(msg), ESMF_LOGMSG_INFO)
      enddo
!
! -------------------------------------------------------------------- /
! 2.  Realize active export fields
!
! 2.a Set connected export fields as active and remove unconnected
!     If realizeAllExport, then set all fields as active and realize.
!
      do i = 1,numExpFields
        isConnected = NUOPC_IsConnected(expState, &
                      expFieldName(i), rc=rc)
        if (ESMF_LogFoundError(rc, PASSTHRU)) return
        expFieldActive(i) = isConnected .or. realizeAllExport
        if (expFieldActive(i)) noActiveExpFields = .false.
        if (.not.expFieldActive(i)) then
          call ESMF_StateRemove(expState, (/expFieldName(i)/), rc=rc)
          if (ESMF_LogFoundError(rc, PASSTHRU)) return
        endif
      enddo
!
! 2.b Create ESMF grid for export fields
!
      if ( (GTYPE.eq.RLGTYPE).or.(GTYPE.eq.CLGTYPE) ) then
         write(msg,'(a)') trim(cname)// &
           ': Creating export grid for Reg/Curvilinear Mode'
         call CreateExpGrid( gcomp, rc=rc )
         if (ESMF_LogFoundError(rc, PASSTHRU)) return
      elseif (GTYPE.eq.UNGTYPE) then
         write(msg,'(a)') trim(cname)// &
           ': Creating export mesh for Unstructured Mode'
         call ESMF_LogWrite(trim(msg), ESMF_LOGMSG_INFO)
         call CreateExpMesh( gcomp, rc=rc )
         if (ESMF_LogFoundError(rc, PASSTHRU)) return
      endif
!
! 2.c Create active export fields and realize
!
      n = 0
      do i = 1,numExpFields
        if (.not.expFieldActive(i)) cycle
        n = n + 1
        if ( (GTYPE.eq.RLGTYPE).or.(GTYPE.eq.CLGTYPE) ) then
          if ( expFieldDim(i).eq.3 ) then
            expField(i) = ESMF_FieldCreate( expGrid, expArraySpec3D, &
              totalLWidth=expHaloLWidth, totalUWidth=expHaloUWidth, &
              gridToFieldMap=(/2,3/), ungriddedLBound=(/1/), ungriddedUBound=(/nz/), &
              staggerLoc=expStaggerLoc, name=trim(expFieldName(i)), rc=rc )
            if (ESMF_LogFoundError(rc, PASSTHRU)) return
          else
            expField(i) = ESMF_FieldCreate( expGrid, expArraySpec2D, &
              totalLWidth=expHaloLWidth, totalUWidth=expHaloUWidth, &
              staggerLoc=expStaggerLoc, name=trim(expFieldName(i)), rc=rc )
            if (ESMF_LogFoundError(rc, PASSTHRU)) return
          endif
          call FieldFill( expField(i), zeroValue, rc=rc )
          if (ESMF_LogFoundError(rc, PASSTHRU)) return
        elseif (GTYPE.eq.UNGTYPE) then
          expField(i) = ESMF_FieldCreate( expMesh, &
            typekind=ESMF_TYPEKIND_RX, name=trim(expFieldName(i)), rc=rc)
          if (ESMF_LogFoundError(rc, PASSTHRU)) return
          call FieldFill( expField(i), zeroValue, rc=rc )
          if (ESMF_LogFoundError(rc, PASSTHRU)) return
        endif
        call NUOPC_Realize( expState, expField(i), rc=rc )
        if (ESMF_LogFoundError(rc, PASSTHRU)) return
      enddo
!
! 2.d Report realized export fields
!
      write(msg,'(a,i0,a)') trim(cname)// &
        ': List of realized export fields(',n,'):'
      call ESMF_LogWrite(trim(msg), ESMF_LOGMSG_INFO)
      write(msg,'(a,a5,a,a10,a3,a)') trim(cname)// &
        ': ','index',' ','name',' ','standardName'
      call ESMF_LogWrite(trim(msg), ESMF_LOGMSG_INFO)
      n = 0
      do i = 1,numExpFields
        if (.not.expFieldActive(i)) cycle
        n = n + 1
        write(msg,'(a,i5,a,a10,a3,a)') trim(cname)//': ',n, &
          ' ',trim(expFieldName(i)),' ',trim(expFieldStdName(i))
        call ESMF_LogWrite(trim(msg), ESMF_LOGMSG_INFO)
      enddo
!
! 2.e Set W3OUTG flags needed for calculating export fields
!
#ifdef USE_W3OUTG_FOR_EXPORT
      call w3seto ( expGridID, mdse, mdst )

      i1 = FieldIndex( expFieldName, 'uscurr', rc )
      if (ESMF_LogFoundError(rc, PASSTHRU)) return
      i2 = FieldIndex( expFieldName, 'vscurr', rc )
      if (ESMF_LogFoundError(rc, PASSTHRU)) return
      if ( expFieldActive(i1) .and. &
           expFieldActive(i2) ) then
        flogr2(6,8) = .true.  !Spectrum of surface Stokes drift
        if ( us3df(1) .le. 0 ) then
          msg = trim(cname)//': Stokes drift export using W3OUTG'// &
            ' requires setting US3D=1 (ww3_grid.inp: OUTS namelist)'
          call ESMF_LogWrite(trim(msg), ESMF_LOGMSG_ERROR)
          rc = ESMF_FAILURE
          return
        endif
      endif

      i1 = FieldIndex( expFieldName, 'wbcuru', rc )
      if (ESMF_LogFoundError(rc, PASSTHRU)) return
      i2 = FieldIndex( expFieldName, 'wbcurv', rc )
      if (ESMF_LogFoundError(rc, PASSTHRU)) return
      i3 = FieldIndex( expFieldName, 'wbcurp', rc )
      if (ESMF_LogFoundError(rc, PASSTHRU)) return
      if ( expFieldActive(i1) .and. &
           expFieldActive(i2) .and. &
           expFieldActive(i3) ) then
        flogr2(7,1) = .true.  !Near bottom rms amplitudes
        flogr2(7,2) = .true.  !Near bottom rms velocities
      endif

      i1 = FieldIndex( expFieldName, 'wavsuu', rc )
      if (ESMF_LogFoundError(rc, PASSTHRU)) return
      i2 = FieldIndex( expFieldName, 'wavsuv', rc )
      if (ESMF_LogFoundError(rc, PASSTHRU)) return
      i3 = FieldIndex( expFieldName, 'wavsvv', rc )
      if (ESMF_LogFoundError(rc, PASSTHRU)) return
      if ( expFieldActive(i1) .and. &
           expFieldActive(i2) .and. &
           expFieldActive(i3) ) then
        flogr2(6,1) = .true.  !Radiation stresses
      endif
#endif
!
! -------------------------------------------------------------------- /
! Post
!
      rc = ESMF_SUCCESS
      call ESMF_VMWtime(wftime)
      wtime(iwt) = wtime(iwt) + wftime - wstime
      wtcnt(iwt) = wtcnt(iwt) + 1
      if (verbosity.gt.0) call ESMF_LogWrite(trim(cname)// &
        ': leaving InitializeP3', ESMF_LOGMSG_INFO)
!/
!/ End of InitializeP3 ----------------------------------------------- /
!/
      end subroutine InitializeP3
!/ ------------------------------------------------------------------- /
#undef METHOD
#define METHOD "Finalize"
      subroutine Finalize ( gcomp, rc )
!/
!/                  +-----------------------------------+
!/                  | WAVEWATCH III           NOAA/NCEP |
!/                  |        T. J. Campbell, NRL        |
!/                  |                        FORTRAN 90 |
!/                  | Last update :         09-Aug-2017 |
!/                  +-----------------------------------+
!/
!/    20-Jan-2017 : Origination.                        ( version 6.02 )
!/    09-Aug-2017 : Add clean up of local allocations   ( version 6.03 )
!/
!  1. Purpose :
!
!     Finalize wave model
!
!  2. Method :
!
!  3. Parameters :
!
!     Parameter list
!     ----------------------------------------------------------------
!       gcomp     Type   I/O Gridded component
!       rc        Int.   O   Return code
!     ----------------------------------------------------------------
!
!  4. Subroutines used :
!
!      Name      Type  Module   Description
!     ----------------------------------------------------------------
!      WMFINL    Subr. WMFINLMD Wave model finalization
!     ----------------------------------------------------------------
!
!  5. Called by :
!
!  6. Error messages :
!
!  7. Remarks :
!
!  8. Structure :
!
!  9. Switches :
!
! 10. Source code :
!
!/ ------------------------------------------------------------------- /
!/
!/ ------------------------------------------------------------------- /
!/ Parameter list
!/
      implicit none
      type(ESMF_GridComp) :: gcomp
      integer,intent(out) :: rc
!/
!/ ------------------------------------------------------------------- /
!/ Local parameters
!/
      character(ESMF_MAXSTR) :: cname
      integer, parameter :: iwt=6
      real(8) :: wstime, wftime
      integer :: i
!
! -------------------------------------------------------------------- /
! Prep
!
      rc = ESMF_SUCCESS
      call ESMF_VMWtime(wstime)
      call ESMF_GridCompGet(gcomp, name=cname, rc=rc)
      if (ESMF_LogFoundError(rc, PASSTHRU)) return
      if (verbosity.gt.0) call ESMF_LogWrite(trim(cname)// &
        ': entered Finalize', ESMF_LOGMSG_INFO)
!
! -------------------------------------------------------------------- /
! 1.  Finalize the wave model
!
      call wmfinl
!
! -------------------------------------------------------------------- /
! 2.  Clean up ESMF data structures
!
! 2.a Import field and grid stuff
!
      if ( .not.noActiveImpFields ) then

        do i = 1,numImpFields
          if (.not.impFieldActive(i)) cycle
          call ESMF_FieldDestroy(impField(i), rc=rc)
          if (ESMF_LogFoundError(rc, PASSTHRU)) return
          if (.not.mbgFieldActive(i)) cycle
          call ESMF_FieldDestroy(mbgField(i), rc=rc)
          if (ESMF_LogFoundError(rc, PASSTHRU)) return
          call ESMF_FieldDestroy(bmskField(i), rc=rc)
          if (ESMF_LogFoundError(rc, PASSTHRU)) return
        enddo

        if ( (GTYPE.eq.RLGTYPE).or.(GTYPE.eq.CLGTYPE) ) then
          call ESMF_FieldHaloRelease(impHaloRH, rc=rc)
          if (ESMF_LogFoundError(rc, PASSTHRU)) return

          call ESMF_GridDestroy(impGrid, rc=rc)
          if (ESMF_LogFoundError(rc, PASSTHRU)) return

        elseif (GTYPE.eq.UNGTYPE) then
!AW          call ESMF_GridDestroy(impMesh, rc=rc)
!AW          if (ESMF_LogFoundError(rc, PASSTHRU)) return
        endif

      endif

      deallocate (impFieldName, &
                  impFieldStdName, &
                  impFieldInitRqrd, &
                  impFieldActive, &
                  impField, &
                  stat=rc)
      if (ESMF_LogFoundDeallocError(rc, PASSTHRU)) return

      deallocate (mbgFieldName, &
                  mbgFieldStdName, &
                  mbgFieldActive, &
                  mbgField, &
                  bmskField, &
                  stat=rc)
      if (ESMF_LogFoundDeallocError(rc, PASSTHRU)) return
!
! 2.b Export field and grid stuff
!
      if ( .not.noActiveExpFields ) then

        do i = 1,numExpFields
          if (.not.expFieldActive(i)) cycle
          call ESMF_FieldDestroy(expField(i), rc=rc)
          if (ESMF_LogFoundError(rc, PASSTHRU)) return
        enddo

        if ( (GTYPE.eq.RLGTYPE).or.(GTYPE.eq.CLGTYPE) ) then
          call ESMF_FieldHaloRelease(expHaloRH, rc=rc)
          if (ESMF_LogFoundError(rc, PASSTHRU)) return

          call ESMF_GridDestroy(expGrid, rc=rc)
          if (ESMF_LogFoundError(rc, PASSTHRU)) return

        elseif (GTYPE.eq.UNGTYPE) then
!AW          call ESMF_GridDestroy(expMesh, rc=rc)
!AW          if (ESMF_LogFoundError(rc, PASSTHRU)) return
        endif

      endif

      deallocate (expFieldName, &
                  expFieldStdName, &
                  expFieldDim, &
                  expFieldActive, &
                  expField, &
                  stat=rc)
      if (ESMF_LogFoundDeallocError(rc, PASSTHRU)) return
!
! 2.c Native field and grid stuff
!
      if ( .not.noActiveExpFields ) then

        call ESMF_FieldRedistRelease(n2eRH, rc=rc)
        if (ESMF_LogFoundError(rc, PASSTHRU)) return

        call ESMF_GridDestroy(natGrid, rc=rc)
        if (ESMF_LogFoundError(rc, PASSTHRU)) return

      endif
!
! -------------------------------------------------------------------- /
! 3.  Clean up locally allocated data structures
!
      if (allocated(zl)) then
        deallocate (zl, stat=rc)
        if (ESMF_LogFoundDeallocError(rc, PASSTHRU)) return
      endif
!
! -------------------------------------------------------------------- /
! Post
!
      call ESMF_VMWtime(wftime)
      wtime(iwt) = wtime(iwt) + wftime - wstime
      wtcnt(iwt) = wtcnt(iwt) + 1
      call PrintTimers(trim(cname), wtnam, wtcnt, wtime)
      rc = ESMF_SUCCESS
      if ( improc .eq. nmpscr ) write (*,999)
      if (verbosity.gt.0) call ESMF_LogWrite(trim(cname)// &
        ': leaving Finalize', ESMF_LOGMSG_INFO)
!
! -------------------------------------------------------------------- /
! Formats
!
  999 format(//'  End of program '/                                   &
               ' ========================================'/           &
               '          WAVEWATCH III Multi-grid shell '/)
!/
!/ End of Finalize --------------------------------------------------- /
!/
      end subroutine Finalize
!/ ------------------------------------------------------------------- /
#undef METHOD
#define METHOD "DataInitialize"
      subroutine DataInitialize ( gcomp, rc )
!/
!/                  +-----------------------------------+
!/                  | WAVEWATCH III           NOAA/NCEP |
!/                  |        T. J. Campbell, NRL        |
!/                  |                        FORTRAN 90 |
!/                  | Last update :         20-Jan-2017 |
!/                  +-----------------------------------+
!/
!/    20-Jan-2017 : Origination.                        ( version 6.02 )
!/
!  1. Purpose :
!
!     Initialize wave model export data
!
!  2. Method :
!
!  3. Parameters :
!
!     Parameter list
!     ----------------------------------------------------------------
!       gcomp     Type   I/O Gridded component
!       rc        Int.   O   Return code
!     ----------------------------------------------------------------
!
!  4. Subroutines used :
!
!      Name            Type  Module   Description
!     ----------------------------------------------------------------
!      GetImport       Subr. WMESMFMD Wave model get import fields
!      SetExport       Subr. WMESMFMD Wave model set export fields
!     ----------------------------------------------------------------
!
!  5. Called by :
!
!  6. Error messages :
!
!  7. Remarks :
!
!  8. Structure :
!
!  9. Switches :
!
! 10. Source code :
!
!/ ------------------------------------------------------------------- /
!/
!/ ------------------------------------------------------------------- /
!/ Parameter list
!/
      implicit none
      type(ESMF_GridComp) :: gcomp
      integer,intent(out) :: rc
!/
!/ ------------------------------------------------------------------- /
!/ Local parameters
!/
      character(ESMF_MAXSTR) :: cname
      integer, parameter :: iwt=4
      real(8) :: wstime, wftime
      type(ESMF_Clock) :: clock
      type(ESMF_Time) :: currTime
      logical :: fldUpdated, allUpdated
      integer :: i, imod
      logical :: local
!
! -------------------------------------------------------------------- /
! Prep
!
      rc = ESMF_SUCCESS
      call ESMF_VMWtime(wstime)
      call ESMF_GridCompGet(gcomp, name=cname, rc=rc)
      if (ESMF_LogFoundError(rc, PASSTHRU)) return
      if (verbosity.gt.0) call ESMF_LogWrite(trim(cname)// &
        ': entered DataInitialize', ESMF_LOGMSG_INFO)
!
! -------------------------------------------------------------------- /
! 1.  Check that required import fields show correct time stamp
!
      call ESMF_GridCompGet(gcomp, clock=clock, rc=rc)
      if (ESMF_LogFoundError(rc, PASSTHRU)) return
      call ESMF_ClockGet(clock, currTime=currTime, rc=rc)
      if (ESMF_LogFoundError(rc, PASSTHRU)) return

      allUpdated = .true.
      do i = 1,numImpFields
        if (.not.impFieldActive(i)) cycle
        if (impFieldInitRqrd(i)) then
          fldUpdated = NUOPC_IsAtTime(impField(i), currTime, rc=rc)
          if (ESMF_LogFoundError(rc, PASSTHRU)) return
          if (fldUpdated) then
            write(msg,'(a,a10,a,a13)') trim(cname)//': ', &
              trim(impFieldName(i)),': inter-model data dependency: ', &
              'SATISFIED'
          else
            allUpdated = .false.
            write(msg,'(a,a10,a,a13)') trim(cname)//': ', &
              trim(impFieldName(i)),': inter-model data dependency: ', &
              'NOT SATISFIED'
          endif
        else
          write(msg,'(a,a10,a,a13)') trim(cname)//': ', &
            trim(impFieldName(i)),': inter-model data dependency: ', &
            'NOT  REQUIRED'
        endif
        if (verbosity.gt.0) call ESMF_LogWrite(trim(msg), ESMF_LOGMSG_INFO)
        if (improc.eq.nmpscr) write(*,'(a)') trim(msg)
        ! background
        if (.not.mbgFieldActive(i)) cycle
        if (impFieldInitRqrd(i)) then
          fldUpdated = NUOPC_IsAtTime(mbgField(i), currTime, rc=rc)
          if (ESMF_LogFoundError(rc, PASSTHRU)) return
          if (fldUpdated) then
            write(msg,'(a,a10,a,a13)') trim(cname)//': ', &
              trim(mbgFieldName(i)),': inter-model data dependency: ', &
              'SATISFIED'
          else
            allUpdated = .false.
            write(msg,'(a,a10,a,a13)') trim(cname)//': ', &
              trim(mbgFieldName(i)),': inter-model data dependency: ', &
              'NOT SATISFIED'
          endif
        else
          write(msg,'(a,a10,a,a13)') trim(cname)//': ', &
            trim(mbgFieldName(i)),': inter-model data dependency: ', &
            'NOT  REQUIRED'
        endif
        if (verbosity.gt.0) call ESMF_LogWrite(trim(msg), ESMF_LOGMSG_INFO)
        if (improc.eq.nmpscr) write(*,'(a)') trim(msg)
      enddo
!
! If not all import dependencies are satisfied, then return
!
      if (.not.allUpdated) goto 1
!
! -------------------------------------------------------------------- /
! 2.  All import dependencies are satisfied, so finish initialization
!
! 2.a Report all import dependencies are satisfied
!
      write(msg,'(a)') trim(cname)// &
        ': all inter-model data dependencies SATISFIED'
      if (verbosity.gt.0) call ESMF_LogWrite(trim(msg), ESMF_LOGMSG_INFO)
      if (improc.eq.nmpscr) write(*,'(a)') trim(msg)
!
! 2.b Setup background blending mask for each import field
!
      do i = 1,numImpFields
        if (.not.impFieldActive(i)) cycle
        if (.not.mbgFieldActive(i)) cycle
        call SetupImpBmsk(bmskField(i), impField(i), missingValue, rc)
        if (ESMF_LogFoundError(rc, PASSTHRU)) return
      enddo
!
! 2.c Get import fields
!
      call GetImport(gcomp, rc)
      if (ESMF_LogFoundError(rc, PASSTHRU)) return
!
! 2.d Finish initialization (compute initial state), if not restart
!
      do imod = 1,nrgrd
        call w3setg ( imod, mdse, mdst )
        call w3setw ( imod, mdse, mdst )
        call w3seta ( imod, mdse, mdst )
        call w3seti ( imod, mdse, mdst )
        call w3seto ( imod, mdse, mdst )
        call wmsetm ( imod, mdse, mdst )
        local = iaproc .gt. 0 .and. iaproc .le. naproc
        if ( local .and. flcold .and. fliwnd ) call w3uini( va )
      enddo
!
! 2.e Set export fields
!
      call SetExport(gcomp, rc)
      if (ESMF_LogFoundError(rc, PASSTHRU)) return
!
! 2.f Set Updated Field Attribute to "true", indicating to the
!     generic code to set the timestamp for these fields
!
      do i = 1,numExpFields
        if (.not.expFieldActive(i)) cycle
        call NUOPC_SetAttribute(expField(i), name="Updated", &
          value="true", rc=rc)
        if (ESMF_LogFoundError(rc, PASSTHRU)) return
      enddo
!
! 2.g Set InitializeDataComplete Attribute to "true", indicating to the
!     generic code that all inter-model data dependencies are satisfied
!
      call NUOPC_CompAttributeSet(gcomp, name="InitializeDataComplete", &
        value="true", rc=rc)
      if (ESMF_LogFoundError(rc, PASSTHRU)) return
!
! -------------------------------------------------------------------- /
! Post
!
1     rc = ESMF_SUCCESS
      call ESMF_VMWtime(wftime)
      wtime(iwt) = wtime(iwt) + wftime - wstime
      wtcnt(iwt) = wtcnt(iwt) + 1
      if (verbosity.gt.0) call ESMF_LogWrite(trim(cname)// &
        ': leaving DataInitialize', ESMF_LOGMSG_INFO)
!/
!/ End of DataInitialize --------------------------------------------- /
!/
      end subroutine DataInitialize
!/ ------------------------------------------------------------------- /
#undef METHOD
#define METHOD "ModelAdvance"
      subroutine ModelAdvance ( gcomp, rc )
!/
!/                  +-----------------------------------+
!/                  | WAVEWATCH III           NOAA/NCEP |
!/                  |        T. J. Campbell, NRL        |
!/                  |                        FORTRAN 90 |
!/                  | Last update :         20-Jan-2017 |
!/                  +-----------------------------------+
!/
!/    20-Jan-2017 : Origination.                        ( version 6.02 )
!/
!  1. Purpose :
!
!     Advance wave model in time
!
!  2. Method :
!
!  3. Parameters :
!
!     Parameter list
!     ----------------------------------------------------------------
!       gcomp     Type   I/O Gridded component
!       rc        Int.   O   Return code
!     ----------------------------------------------------------------
!
!  4. Subroutines used :
!
!      Name      Type  Module   Description
!     ----------------------------------------------------------------
!      GetImport Subr. WMESMFMD Wave model get import fields
!      SetExport Subr. WMESMFMD Wave model set export fields
!      WMWAVE    Subr. WMWAVEMD Wave model run
!     ----------------------------------------------------------------
!
!  5. Called by :
!
!  6. Error messages :
!
!  7. Remarks :
!
!  8. Structure :
!
!  9. Switches :
!
! 10. Source code :
!
!/ ------------------------------------------------------------------- /
!/
!/ ------------------------------------------------------------------- /
!/ Parameter list
!/
      implicit none
      type(ESMF_GridComp) :: gcomp
      integer,intent(out) :: rc
!/
!/ ------------------------------------------------------------------- /
!/ Local parameters
!/
      character(ESMF_MAXSTR) :: cname
      integer, parameter :: iwt=5
      real(8) :: wstime, wftime
      integer :: stat, imod, tcur(2)
      integer, allocatable :: tend(:,:)
      integer(ESMF_KIND_I4) :: yy,mm,dd,h,m,s
      type(ESMF_Clock) :: clock
      type(ESMF_Time) :: currTime, stopTime
      real :: delt
      logical :: lerr
!
! -------------------------------------------------------------------- /
! Prep
!
      rc = ESMF_SUCCESS
      call ESMF_VMWtime(wstime)
      call ESMF_GridCompGet(gcomp, name=cname, rc=rc)
      if (ESMF_LogFoundError(rc, PASSTHRU)) return
      if (verbosity.gt.0) call ESMF_LogWrite(trim(cname)// &
        ': entered ModelAdvance', ESMF_LOGMSG_INFO)

      allocate (tend(2,nrgrd), stat=rc)
      if (ESMF_LogFoundAllocError(rc, PASSTHRU)) return
!
! -------------------------------------------------------------------- /
! 1.  Advance model to requested end time
!
! 1.a Get component clock
!
      call ESMF_GridCompGet(gcomp, clock=clock, rc=rc)
      if (ESMF_LogFoundError(rc, PASSTHRU)) return
!
! 1.b Report
!
      if ( improc .eq. nmpscr ) then
        write(*,'(///)')
        call ESMF_ClockPrint(clock, options="currTime", &
          preString="-->Advancing "//TRIM(cname)//" from: ")
        call ESMF_ClockPrint(clock, options="stopTime", &
          preString="-----------------> to: ")
      endif
!
! 1.c Check internal current time with component current time
!
      call ESMF_ClockGet(clock, currTime=currTime, rc=rc)
      if (ESMF_LogFoundError(rc, PASSTHRU)) return
      call ESMF_TimeGet(currTime, yy=yy,mm=mm,dd=dd,h=h,m=m,s=s, rc=rc)
      if (ESMF_LogFoundError(rc, PASSTHRU)) return
      lerr=.false.
      do imod = 1,nrgrd
        tcur(1) = 10000*yy + 100*mm + dd
        tcur(2) = 10000*h  + 100*m  + s
        call w3setw ( imod, mdse, mdst )
        delt = dsec21 ( time, tcur )
        if ( abs(delt).gt.0 ) then
          lerr=.true.
          write(msg,'(a,i2,a,2(a,i8,a,i8,a))') &
          'Wave model grid ',imod,': ', &
          'Internal time (',time(1),'.',time(2),') /= ', &
          'Component time (',tcur(1),'.',tcur(2),')'
          call ESMF_LogWrite(trim(msg), ESMF_LOGMSG_ERROR)
        endif
      enddo
      if (lerr) then
        rc = ESMF_FAILURE
        return
      endif
!
! 1.d Set end time of this advance
!
      call ESMF_ClockGet(clock, stopTime=stopTime, rc=rc)
      if (ESMF_LogFoundError(rc, PASSTHRU)) return
      call ESMF_TimeGet(stopTime, yy=yy,mm=mm,dd=dd,h=h,m=m,s=s, rc=rc)
      if (ESMF_LogFoundError(rc, PASSTHRU)) return
      do imod = 1,nrgrd
        tend(1,imod) = 10000*yy + 100*mm + dd
        tend(2,imod) = 10000*h  + 100*m  + s
      enddo
!
! 1.e Get import fields
!
      call GetImport(gcomp, rc=rc)
      if (ESMF_LogFoundError(rc, PASSTHRU)) return
!
! 1.f Advance model
!
      call wmwave ( tend )
!
! 1.g Set export fields
!
      call SetExport(gcomp, rc=rc)
      if (ESMF_LogFoundError(rc, PASSTHRU)) return
!
! -------------------------------------------------------------------- /
! Post
!
      deallocate (tend, stat=rc)
      if (ESMF_LogFoundDeallocError(rc, PASSTHRU)) return
      rc = ESMF_SUCCESS
      call ESMF_VMWtime(wftime)
      wtime(iwt) = wtime(iwt) + wftime - wstime
      wtcnt(iwt) = wtcnt(iwt) + 1
      if (verbosity.gt.0) call ESMF_LogWrite(trim(cname)// &
        ': leaving ModelAdvance', ESMF_LOGMSG_INFO)
!/
!/ End of ModelAdvance ----------------------------------------------- /
!/
      end subroutine ModelAdvance
!/ ------------------------------------------------------------------- /
#undef METHOD
#define METHOD "GetImport"
      subroutine GetImport ( gcomp, rc )
!/
!/                  +-----------------------------------+
!/                  | WAVEWATCH III           NOAA/NCEP |
!/                  |        T. J. Campbell, NRL        |
!/                  |                        FORTRAN 90 |
!/                  | Last update :         20-Jan-2017 |
!/                  +-----------------------------------+
!/
!/    20-Jan-2017 : Origination.                        ( version 6.02 )
!/
!  1. Purpose :
!
!     Get import fields and put in internal data structures
!
!  2. Method :
!
!  3. Parameters :
!
!     Parameter list
!     ----------------------------------------------------------------
!       gcomp     Type   I/O Gridded component
!       rc        Int.   O   Return code
!     ----------------------------------------------------------------
!
!  4. Subroutines used :
!
!      Name      Type  Module   Description
!     ----------------------------------------------------------------
!      NONE
!     ----------------------------------------------------------------
!
!  5. Called by :
!
!  6. Error messages :
!
!  7. Remarks :
!
!  8. Structure :
!
!  9. Switches :
!
! 10. Source code :
!
!/ ------------------------------------------------------------------- /
!/
!/ ------------------------------------------------------------------- /
!/ Parameter list
!/
!/MPI      USE WMMDATMD, ONLY: IMPROC
      implicit none
      type(ESMF_GridComp) :: gcomp
      integer,intent(out) :: rc
!/
!/ ------------------------------------------------------------------- /
!/ Local parameters
!/
      character(ESMF_MAXSTR) :: cname
!AW ---TEST-TEST-TEST---------------------------
      character(500) :: msg
      integer :: k
!AW ---TEST-TEST-TEST---------------------------
      integer, parameter :: iwt=7
      real(8) :: wstime, wftime
      integer :: i1, i2, i3, j, imod, jmod
      logical, save :: firstCall = .true.
      integer :: tcur(2), tend(2)
      integer(ESMF_KIND_I4) :: yy,mm,dd,h,m,s
      type(ESMF_Clock) :: clock
      type(ESMF_Time) :: currTime, stopTime
#if defined(TEST_WMESMFMD) || defined(TEST_WMESMFMD_GETIMPORT)
      type(ESMF_State) :: dumpState
      integer, save :: timeSlice = 1
#endif
!
! -------------------------------------------------------------------- /
! Prep
!
      rc = ESMF_SUCCESS
      if ( noActiveImpFields ) return
      call ESMF_VMWtime(wstime)
      call ESMF_GridCompGet(gcomp, name=cname, rc=rc)
      if (ESMF_LogFoundError(rc, PASSTHRU)) return
      if (verbosity.gt.0) call ESMF_LogWrite(trim(cname)// &
        ': entered GetImport', ESMF_LOGMSG_INFO)
#if defined(TEST_WMESMFMD) || defined(TEST_WMESMFMD_GETIMPORT)
      call NUOPC_ModelGet(gcomp, importState=dumpState, rc=rc)
      if (ESMF_LogFoundError(rc, PASSTHRU)) return
      call NUOPC_Write(dumpState, overwrite=.true., &
        fileNamePrefix="field_"//trim(cname)//"_import1_", &
        timeslice=timeSlice, relaxedFlag=.true., rc=rc)
      if (ESMF_LogFoundError(rc, PASSTHRU)) return
#endif
!
! -------------------------------------------------------------------- /
! Set time stamps using currTime and stopTime
!
      call ESMF_GridCompGet(gcomp, clock=clock, rc=rc)
      if (ESMF_LogFoundError(rc, PASSTHRU)) return
      call ESMF_ClockGet(clock, currTime=currTime, rc=rc)
      if (ESMF_LogFoundError(rc, PASSTHRU)) return
      call ESMF_TimeGet(currTime, yy=yy,mm=mm,dd=dd,h=h,m=m,s=s, rc=rc)
      if (ESMF_LogFoundError(rc, PASSTHRU)) return
      tcur(1) = 10000*yy + 100*mm + dd
      tcur(2) = 10000*h  + 100*m  + s
      call ESMF_ClockGet(clock, stopTime=stopTime, rc=rc)
      if (ESMF_LogFoundError(rc, PASSTHRU)) return
      call ESMF_TimeGet(stopTime, yy=yy,mm=mm,dd=dd,h=h,m=m,s=s, rc=rc)
      if (ESMF_LogFoundError(rc, PASSTHRU)) return
      tend(1) = 10000*yy + 100*mm + dd
      tend(2) = 10000*h  + 100*m  + s

!
! -------------------------------------------------------------------- /
! Water levels
!
      j = 1
      i1 = FieldIndex( impFieldName, 'seahgt', rc )
      if (ESMF_LogFoundError(rc, PASSTHRU)) return
      i2 = i1
      if ( impFieldActive(i1) ) then
        call w3setg ( impGridID, mdse, mdst )
        call w3seti ( impGridID, mdse, mdst )
        if (firstCall) then
          tln = tcur
        else
          tln = tend
        endif
        tfn(:,j) = tln
        if ( mbgFieldActive(i1) ) then
          call BlendImpField( impField(i1), mbgField(i1), bmskField(i1), rc=rc )
          if (ESMF_LogFoundError(rc, PASSTHRU)) return
        endif
        call FieldGather( impField(i1), nx, ny, wlev, rc=rc )
        if (ESMF_LogFoundError(rc, PASSTHRU)) return
        do imod = 1,nrgrd
          call w3setg ( imod, mdse, mdst )
          call w3setw ( imod, mdse, mdst )
          call w3seti ( imod, mdse, mdst )
          call w3seto ( imod, mdse, mdst )
          call wmsetm ( imod, mdse, mdst )
!/MPI          if ( mpi_comm_grd .eq. mpi_comm_null ) cycle
          jmod = inpmap(imod,j)
          if ( jmod.lt.0 .and. jmod.ne.-999 ) then
            call wmupd2( imod, j, jmod, rc )
            if (ESMF_LogFoundError(rc, PASSTHRU)) return
          endif
        enddo
      endif
!
! -------------------------------------------------------------------- /
! Currents
!
      j = 2
      i1 = FieldIndex( impFieldName, 'uucurr', rc )
      if (ESMF_LogFoundError(rc, PASSTHRU)) return
      i2 = FieldIndex( impFieldName, 'vvcurr', rc )
      if (ESMF_LogFoundError(rc, PASSTHRU)) return
      if ( impFieldActive(i1) ) then
        call w3setg ( impGridID, mdse, mdst )
        call w3seti ( impGridID, mdse, mdst )
        if (firstCall) then
          tcn = tcur
        else
          tc0 = tcn
          cx0 = cxn
          cy0 = cyn
          tcn = tend
        endif
        tfn(:,j) = tcn
        if ( mbgFieldActive(i1) ) then
          call BlendImpField( impField(i1), mbgField(i1), bmskField(i1), rc=rc )
          if (ESMF_LogFoundError(rc, PASSTHRU)) return
          call BlendImpField( impField(i2), mbgField(i2), bmskField(i2), rc=rc )
          if (ESMF_LogFoundError(rc, PASSTHRU)) return
        endif
        call FieldGather( impField(i1), nx, ny, cxn, rc=rc )
        if (ESMF_LogFoundError(rc, PASSTHRU)) return
        call FieldGather( impField(i2), nx, ny, cyn, rc=rc )
        if (ESMF_LogFoundError(rc, PASSTHRU)) return
        if (firstCall) then
          tc0 = tcn
          cx0 = cxn
          cy0 = cyn
        endif
        do imod = 1,nrgrd
          call w3setg ( imod, mdse, mdst )
          call w3setw ( imod, mdse, mdst )
          call w3seti ( imod, mdse, mdst )
          call wmsetm ( imod, mdse, mdst )
!/MPI          if ( mpi_comm_grd .eq. mpi_comm_null ) cycle
          jmod = inpmap(imod,j)
          if ( jmod.lt.0 .and. jmod.ne.-999 ) then
[...]
!/PDLIB      endif

        facd = dwat*grav
!/PDLIB      if ( LPDLIB == .FALSE. ) then
        jsea_loop: do jsea = 1,nseal
!/DIST          isea = iaproc + (jsea-1)*naproc
!/SHRD          isea = jsea
          if ( dw(isea).le.zero ) cycle jsea_loop
#ifdef USE_W3OUTG_FOR_EXPORT
          sxxn(jsea) = sxx(jsea)
          sxyn(jsea) = sxy(jsea)
          syyn(jsea) = syy(jsea)
#else
          sxxs = zero
          sxys = zero
          syys = zero
          ik_loop: do ik = 1,nk
            akxx = zero
            akxy = zero
            akyy = zero
            cgoc = cg(ik,isea)*wn(ik,isea)/sig(ik)
            cgoc = min(one,max(half,cgoc))
            ith_loop: do ith = 1,nth
              akxx = akxx + (cgoc*(ec2(ith)+one)-half)*a(ith,ik,jsea)
              akxy = akxy + cgoc*esc(ith)*a(ith,ik,jsea)
              akyy = akyy + (cgoc*(es2(ith)+one)-half)*a(ith,ik,jsea)
            enddo ith_loop
            fack = dden(ik)/cg(ik,isea)
            sxxs = sxxs + akxx*fack
            sxys = sxys + akxy*fack
            syys = syys + akyy*fack
          enddo ik_loop
          facs = (one+fte/cg(nk,isea))*facd
          sxxn(jsea) = sxxs*facs
          sxyn(jsea) = sxys*facs
          syyn(jsea) = syys*facs
#endif
        enddo jsea_loop
!/PDLIB      else
!/PDLIB        jsea_loop2: do jsea = 1,np 
!/PDLIB          isea = iplg(jsea)
!/PDLIB!          if ( dw(isea).le.zero ) cycle jsea_loop
!/PDLIB          sxxn(jsea) = sxx(jsea)
!/PDLIB          sxyn(jsea) = sxy(jsea)
!/PDLIB          syyn(jsea) = syy(jsea)
!/PDLIB!        write(msg,*) trim(cname)//' sxxn', sxxn(jsea)
!/PDLIB!        call ESMF_LogWrite(trim(msg), ESMF_LOGMSG_INFO)
!/PDLIB        enddo jsea_loop2
!/PDLIB      endif

      endif !natGridIsLocal

!/PDLIB      if ( LPDLIB == .FALSE. ) then
      call ESMF_FieldRedist( sxxnField, sxxField, n2eRH, rc=rc )
      if (ESMF_LogFoundError(rc, PASSTHRU)) return
      call ESMF_FieldRedist( sxynField, sxyField, n2eRH, rc=rc )
      if (ESMF_LogFoundError(rc, PASSTHRU)) return
      call ESMF_FieldRedist( syynField, syyField, n2eRH, rc=rc )
      if (ESMF_LogFoundError(rc, PASSTHRU)) return

      call ESMF_FieldDestroy( sxxnField, rc=rc )
      if (ESMF_LogFoundError(rc, PASSTHRU)) return
      call ESMF_FieldDestroy( sxynField, rc=rc )
      if (ESMF_LogFoundError(rc, PASSTHRU)) return
      call ESMF_FieldDestroy( syynField, rc=rc )
      if (ESMF_LogFoundError(rc, PASSTHRU)) return
!/PDLIB      endif

#ifdef TEST_WMESMFMD_RADSTR2D
      call ESMF_FieldWrite( sxxField, "wmesmfmd_radstr2d_sxx.nc", &
        overwrite=.true., timeSlice=timeSlice, rc=rc )
      if (ESMF_LogFoundError(rc, PASSTHRU)) return
      call ESMF_FieldWrite( sxyField, "wmesmfmd_radstr2d_sxy.nc", &
        overwrite=.true., timeSlice=timeSlice, rc=rc )
      if (ESMF_LogFoundError(rc, PASSTHRU)) return
      call ESMF_FieldWrite( syyField, "wmesmfmd_radstr2d_syy.nc", &
        overwrite=.true., timeSlice=timeSlice, rc=rc )
      if (ESMF_LogFoundError(rc, PASSTHRU)) return
      timeSlice = timeSlice + 1
#endif
!/
!/ End of CalcRadstr2D ----------------------------------------------- /
!/
      end subroutine CalcRadstr2D
!/ ------------------------------------------------------------------- /
#undef METHOD
#define METHOD "CalcStokes3D"
      subroutine CalcStokes3D ( a, usxField, usyField, rc )
!/
!/                  +-----------------------------------+
!/                  | WAVEWATCH III           NOAA/NCEP |
!/                  |        T. J. Campbell, NRL        |
!/                  |                        FORTRAN 90 |
!/                  | Last update :         09-Aug-2017 |
!/                  +-----------------------------------+
!/
!/    09-Aug-2017 : Origination.                        ( version 6.03 )
!/
!  1. Purpose :
!
!     Calculate 3D Stokes drift current for export
!
!  2. Method :
!
!    Kenyon, K. E. (1969), J. Geophys. R., Vol 74, No 28, p 6991
!
!    U_vec(z)
!             //
!      = 2 g || ( F(f,theta) k_vec/C cosh(2k(D+z))/sinh(2kD) ) dsig dtheta
!           //
!
!          //
!      =  || (Ac(k,theta) sig^2 k_vec/Cg cosh(2k(D+z))/sinh^2(kD) ) dsig dtheta
!        //
!
! Where:
!   Ac(k,theta) = wave action density
!   k_vec = k*[cos(theta),sin(theta)]
!   D = depth
!   z = height (0 = mean sea level)
!
! In deep water (kD large):  cosh(2k(D+z))/sinh^2(kD) --> 2*exp(2kz)
!
!  3. Parameters :
!
!     Parameter list
!     ----------------------------------------------------------------
!       a         Real   I   Input spectra (in par list to change shape)
!       usxField  Type   I/O 3D SDC eastward-component export field
!       usyField  Type   I/O 3D SDC northward-component export field
!       rc        Int    O   Return code
!     ----------------------------------------------------------------
!
!  4. Subroutines used :
!
!      Name      Type  Module   Description
!     ----------------------------------------------------------------
!      NONE
!     ----------------------------------------------------------------
!
!  5. Called by :
!
!  6. Error messages :
!
!  7. Remarks :
!
!  8. Structure :
!
!  9. Switches :
!
! 10. Source code :
!
!/ ------------------------------------------------------------------- /
!/
!/ ------------------------------------------------------------------- /
!/ Parameter list
!/
      implicit none
      real             :: a(nth,nk,0:nseal)
      type(ESMF_Field) :: usxField
      type(ESMF_Field) :: usyField
      integer          :: rc
!/
!/ ------------------------------------------------------------------- /
!/ Local parameters
!/
      real(8), parameter :: zero  = 0.0
      real(8), parameter :: half  = 0.5
      real(8), parameter ::  one  = 1.0
      real(8), parameter ::  two  = 2.0
      ! kdmin = 1e-7: sinh(kdmin)**2 ~ 1e-14
      real(8), parameter :: kdmin = 1e-7
      ! kdmax = 18.0:  cosh(2*(kdmax+kz))/sinh(kdmax)**2 - 2*exp(2*kz) < 1e-14
      real(8), parameter :: kdmax = 18.0
      ! kdmin & kdmax settings used in w3iogomd
      real(8), parameter :: kdmin_us3d = 1e-3
      real(8), parameter :: kdmax_us3d = 6.0
      integer :: isea, jsea, ik, ith, iz
      real(8) :: depth
      real(8) :: akx, aky, kd, kz, fac1, fac2, fac3
      real(8) :: uzx(nz), uzy(nz)
      real(8), allocatable :: fack(:)
      type(ESMF_Field) :: usxnField, usynField
      real(ESMF_KIND_RX), pointer :: usxn(:,:), usyn(:,:)
      integer, save :: timeSlice = 1
! Need this workaround to deal with ESMF_FieldCreate not setting up the
! Fortran arrays with the ungridded dimension as the first array dimension
#define ESMF_ARBSEQ_WORKAROUND
#ifdef ESMF_ARBSEQ_WORKAROUND
      type(ESMF_DistGrid) :: natDistGrid
      type(ESMF_Array) :: usxnArray, usynArray
#endif
!
! -------------------------------------------------------------------- /
!
      rc = ESMF_SUCCESS

#ifdef ESMF_ARBSEQ_WORKAROUND
      call ESMF_GridGet( natGrid, distGrid=natDistGrid, rc=rc )
      if (ESMF_LogFoundError(rc, PASSTHRU)) return
      usxnArray = ESMF_ArrayCreate( natDistGrid, ESMF_TYPEKIND_RX, &
        distGridToArrayMap=(/2/), undistLBound=(/1/), undistUBound=(/nz/), rc=rc )
      if (ESMF_LogFoundError(rc, PASSTHRU)) return
      usxnField = ESMF_FieldCreate( natGrid, usxnArray, &
        gridToFieldMap=(/2,3/), ungriddedLBound=(/1/), ungriddedUBound=(/nz/), &
        staggerLoc=natStaggerLoc, rc=rc )
      if (ESMF_LogFoundError(rc, PASSTHRU)) return
      usynArray = ESMF_ArrayCreate( natDistGrid, ESMF_TYPEKIND_RX, &
        distGridToArrayMap=(/2/), undistLBound=(/1/), undistUBound=(/nz/), rc=rc )
      if (ESMF_LogFoundError(rc, PASSTHRU)) return
      usynField = ESMF_FieldCreate( natGrid, usynArray, &
        gridToFieldMap=(/2,3/), ungriddedLBound=(/1/), ungriddedUBound=(/nz/), &
        staggerLoc=natStaggerLoc, rc=rc )
      if (ESMF_LogFoundError(rc, PASSTHRU)) return
#else
      usxnField = ESMF_FieldCreate( natGrid, natArraySpec3D, &
        gridToFieldMap=(/2,3/), ungriddedLBound=(/1/), ungriddedUBound=(/nz/), &
        staggerLoc=natStaggerLoc, rc=rc )
      if (ESMF_LogFoundError(rc, PASSTHRU)) return
      usynField = ESMF_FieldCreate( natGrid, natArraySpec3D, &
        gridToFieldMap=(/2,3/), ungriddedLBound=(/1/), ungriddedUBound=(/nz/), &
        staggerLoc=natStaggerLoc, rc=rc )
      if (ESMF_LogFoundError(rc, PASSTHRU)) return
#endif

      call FieldFill( usxnField, zeroValue, rc=rc )
      if (ESMF_LogFoundError(rc, PASSTHRU)) return
      call FieldFill( usynField, zeroValue, rc=rc )
      if (ESMF_LogFoundError(rc, PASSTHRU)) return

      if ( natGridIsLocal ) then

        call ESMF_FieldGet( usxnField, farrayPtr=usxn, rc=rc )
        if (ESMF_LogFoundError(rc, PASSTHRU)) return
        call ESMF_FieldGet( usynField, farrayPtr=usyn, rc=rc )
        if (ESMF_LogFoundError(rc, PASSTHRU)) return

        allocate( fack(1:nk) )
        fack(1:nk) = dden(1:nk) * sig(1:nk)

        jsea_loop: do jsea = 1,nseal
!/DIST          isea = iaproc + (jsea-1)*naproc
!/SHRD          isea = jsea
          if ( dw(isea).le.zero ) cycle jsea_loop
          depth = max(dmin,dw(isea))
          uzx(:) = zero
          uzy(:) = zero
#ifdef USE_W3OUTG_FOR_EXPORT
          ik_loop: do ik = us3df(2),us3df(3)
            fac1 = tpiinv*dsii(ik)
            kd = max(kdmin_us3d,wn(ik,isea)*dw(isea))
            iz_loop: do iz = 1,nz
              if ( dw(isea)+zl(iz).le.zero ) cycle iz_loop
              kz = wn(ik,isea)*zl(iz)
              if ( kd .lt. kdmax_us3d ) then
                fac2 = fac1*cosh(two*max(zero,kd+kz))/cosh(two*kd)
              else
                fac2 = fac1*exp(two*kz)
              endif
              uzx(iz) = uzx(iz) + us3d(jsea,ik   )*fac2
              uzy(iz) = uzy(iz) + us3d(jsea,nk+ik)*fac2
            enddo iz_loop
          enddo ik_loop
#else
          ik_loop: do ik = 1,nk
            akx = zero
            aky = zero
            ith_loop: do ith = 1,nth
              akx = akx + a(ith,ik,jsea)*ecos(ith)
              aky = aky + a(ith,ik,jsea)*esin(ith)
            enddo ith_loop
            fac1 = fack(ik)*wn(ik,isea)/cg(ik,isea)
            kd = max(kdmin,wn(ik,isea)*depth)
            if ( kd .lt. kdmax ) then
              fac2 = fac1/sinh(kd)**2
            else
              fac2 = fac1*two
            endif
            akx = akx*fac2
            aky = aky*fac2
            iz_loop: do iz = 1,nz
              if ( depth+zl(iz).le.zero ) cycle iz_loop
              kz = wn(ik,isea)*zl(iz)
              if ( kd .lt. kdmax ) then
                fac3 = cosh(two*max(zero,kd+kz))
              else
                fac3 = exp(two*kz)
              endif
              uzx(iz) = uzx(iz) + akx*fac3
              uzy(iz) = uzy(iz) + aky*fac3
            enddo iz_loop
          enddo ik_loop
#endif
          usxn(:,jsea) = uzx(:)
          usyn(:,jsea) = uzy(:)
        enddo jsea_loop

        deallocate( fack )

      endif !natGridIsLocal

      call ESMF_FieldRedist( usxnField, usxField, n2eRH, rc=rc )
      if (ESMF_LogFoundError(rc, PASSTHRU)) return
      call ESMF_FieldRedist( usynField, usyField, n2eRH, rc=rc )
      if (ESMF_LogFoundError(rc, PASSTHRU)) return

#ifdef ESMF_ARBSEQ_WORKAROUND
      call ESMF_ArrayDestroy( usxnArray, rc=rc )
      if (ESMF_LogFoundError(rc, PASSTHRU)) return
      call ESMF_ArrayDestroy( usynArray, rc=rc )
      if (ESMF_LogFoundError(rc, PASSTHRU)) return
#endif
      call ESMF_FieldDestroy( usxnField, rc=rc )
      if (ESMF_LogFoundError(rc, PASSTHRU)) return
      call ESMF_FieldDestroy( usynField, rc=rc )
      if (ESMF_LogFoundError(rc, PASSTHRU)) return

#ifdef TEST_WMESMFMD_STOKES3D
      call ESMF_FieldWrite( usxField, "wmesmfmd_stokes3d_usx.nc", &
        overwrite=.true., timeSlice=timeSlice, rc=rc )
      if (ESMF_LogFoundError(rc, PASSTHRU)) return
      call ESMF_FieldWrite( usyField, "wmesmfmd_stokes3d_usy.nc", &
        overwrite=.true., timeSlice=timeSlice, rc=rc )
      if (ESMF_LogFoundError(rc, PASSTHRU)) return
      timeSlice = timeSlice + 1
#endif
!/
!/ End of CalcStokes3D ----------------------------------------------- /
!/
      end subroutine CalcStokes3D
!/ ------------------------------------------------------------------- /
#undef METHOD
#define METHOD "CalcPStokes"
      subroutine CalcPStokes ( a, p1xField, p1yField, p2xField,   &
                                 p2yField, p3xField, p3yField, rc )
!/
!/                  +-----------------------------------+
!/                  | WAVEWATCH III           NOAA/NCEP |
!/                  |           J. Meixner              |
!/                  |                        FORTRAN 90 |
!/                  | Last update :         29-Oct-2019 |
!/                  +-----------------------------------+
!/
!/    DD-MMM-YYYY : Origination.                        ( version 7.XX )
!/
!  1. Purpose :
!
!     Calculate partitioned Stokes drift for export
!
!  2. Method :
!
!  3. Parameters :
!
!     Parameter list
!     ----------------------------------------------------------------
!       a         Real   I   Input spectra (in par list to change shape)
!       p1Field   Type   I/O 
!       p2Field   Type   I/O 
!       p3Field   Type   I/O 
!       rc        Int    O   Return code
!     ----------------------------------------------------------------
!
!  4. Subroutines used :
!
!      Name      Type  Module   Description
!     ----------------------------------------------------------------
!      NONE
!     ----------------------------------------------------------------
!
!  5. Called by :
!
!  6. Error messages :
!
!  7. Remarks :
!
!  8. Structure :
!
!  9. Switches :
!
! 10. Source code :
!
!/ ------------------------------------------------------------------- /
!/
      USE W3ADATMD, ONLY: USSP
      USE W3IOGOMD, ONLY: CALC_U3STOKES
      IMPLICIT NONE
!/ ------------------------------------------------------------------- /
!/ Parameter list
!/
      real             :: a(nth,nk,0:nseal)
      type(ESMF_Field) :: p1xField,p2xField,p3xField
      type(ESMF_Field) :: p1yField,p2yField,p3yField
      integer          :: rc
!/
!/ ------------------------------------------------------------------- /
!/ Local parameters
!/
      !real(8) :: sxxs, sxys, syys
      type(ESMF_Field) :: p1xnField, p2xnField, p3xnField
      type(ESMF_Field) :: p1ynField, p2ynField, p3ynField
      real(ESMF_KIND_RX), pointer :: p1xn(:), p2xn(:), p3xn(:)
      real(ESMF_KIND_RX), pointer :: p1yn(:), p2yn(:), p3yn(:)
      integer, save :: timeSlice = 1
      integer :: isea,jsea 
!
! -------------------------------------------------------------------- /
!
      rc = ESMF_SUCCESS


      p1xnField = ESMF_FieldCreate( natGrid, natArraySpec2D, &
        staggerLoc=natStaggerLoc, rc=rc )
      if (ESMF_LogFoundError(rc, PASSTHRU)) return
      p1ynField = ESMF_FieldCreate( natGrid, natArraySpec2D, &
        staggerLoc=natStaggerLoc, rc=rc )
      if (ESMF_LogFoundError(rc, PASSTHRU)) return
      p2xnField = ESMF_FieldCreate( natGrid, natArraySpec2D, &
        staggerLoc=natStaggerLoc, rc=rc )
      if (ESMF_LogFoundError(rc, PASSTHRU)) return
      p2ynField = ESMF_FieldCreate( natGrid, natArraySpec2D, &
        staggerLoc=natStaggerLoc, rc=rc )
      if (ESMF_LogFoundError(rc, PASSTHRU)) return
      p3xnField = ESMF_FieldCreate( natGrid, natArraySpec2D, &
        staggerLoc=natStaggerLoc, rc=rc )
      if (ESMF_LogFoundError(rc, PASSTHRU)) return
      p3ynField = ESMF_FieldCreate( natGrid, natArraySpec2D, &
        staggerLoc=natStaggerLoc, rc=rc )
      if (ESMF_LogFoundError(rc, PASSTHRU)) return

      call FieldFill( p1xnField, zeroValue, rc=rc )
      if (ESMF_LogFoundError(rc, PASSTHRU)) return
      call FieldFill( p1ynField, zeroValue, rc=rc )
      if (ESMF_LogFoundError(rc, PASSTHRU)) return
      call FieldFill( p2xnField, zeroValue, rc=rc )
      if (ESMF_LogFoundError(rc, PASSTHRU)) return
      call FieldFill( p2ynField, zeroValue, rc=rc )
      if (ESMF_LogFoundError(rc, PASSTHRU)) return
      call FieldFill( p3xnField, zeroValue, rc=rc )
      if (ESMF_LogFoundError(rc, PASSTHRU)) return
      call FieldFill( p3ynField, zeroValue, rc=rc )
      if (ESMF_LogFoundError(rc, PASSTHRU)) return

      if ( natGridIsLocal ) then

        call ESMF_FieldGet( p1xnField, farrayPtr=p1xn, rc=rc )
        if (ESMF_LogFoundError(rc, PASSTHRU)) return
        call ESMF_FieldGet( p1ynField, farrayPtr=p1yn, rc=rc )
        if (ESMF_LogFoundError(rc, PASSTHRU)) return
        call ESMF_FieldGet( p2xnField, farrayPtr=p2xn, rc=rc )
        if (ESMF_LogFoundError(rc, PASSTHRU)) return
        call ESMF_FieldGet( p2ynField, farrayPtr=p2yn, rc=rc )
        if (ESMF_LogFoundError(rc, PASSTHRU)) return
        call ESMF_FieldGet( p3xnField, farrayPtr=p3xn, rc=rc )
        if (ESMF_LogFoundError(rc, PASSTHRU)) return
        call ESMF_FieldGet( p3ynField, farrayPtr=p3yn, rc=rc )
        if (ESMF_LogFoundError(rc, PASSTHRU)) return

        call CALC_U3STOKES ( a , 2 )

        jsea_loop: do jsea = 1,nseal
!/DIST      isea = iaproc + (jsea-1)*naproc
!/SHRD       isea = jsea

          p1xn(jsea)=ussp(jsea,1)
          p1yn(jsea)=ussp(jsea,nk+1)
          p2xn(jsea)=ussp(jsea,2)
          p2yn(jsea)=ussp(jsea,nk+2)
          p3xn(jsea)=ussp(jsea,3)
          p3yn(jsea)=ussp(jsea,nk+3)
        enddo jsea_loop

      endif !natGridIsLocal

      call ESMF_FieldRedist( p1xnField, p1xField, n2eRH, rc=rc )
      if (ESMF_LogFoundError(rc, PASSTHRU)) return
      call ESMF_FieldRedist( p1ynField, p1yField, n2eRH, rc=rc )
      if (ESMF_LogFoundError(rc, PASSTHRU)) return
      call ESMF_FieldRedist( p2xnField, p2xField, n2eRH, rc=rc )
      if (ESMF_LogFoundError(rc, PASSTHRU)) return
      call ESMF_FieldRedist( p2ynField, p2yField, n2eRH, rc=rc )
      if (ESMF_LogFoundError(rc, PASSTHRU)) return
      call ESMF_FieldRedist( p3xnField, p3xField, n2eRH, rc=rc )
      if (ESMF_LogFoundError(rc, PASSTHRU)) return
      call ESMF_FieldRedist( p3ynField, p3yField, n2eRH, rc=rc )
      if (ESMF_LogFoundError(rc, PASSTHRU)) return

      call ESMF_FieldDestroy( p1xnField, rc=rc )
      if (ESMF_LogFoundError(rc, PASSTHRU)) return
      call ESMF_FieldDestroy( p2xnField, rc=rc )
      if (ESMF_LogFoundError(rc, PASSTHRU)) return
      call ESMF_FieldDestroy( p3xnField, rc=rc )
      if (ESMF_LogFoundError(rc, PASSTHRU)) return
      call ESMF_FieldDestroy( p1ynField, rc=rc )
      if (ESMF_LogFoundError(rc, PASSTHRU)) return
      call ESMF_FieldDestroy( p2ynField, rc=rc )
      if (ESMF_LogFoundError(rc, PASSTHRU)) return
      call ESMF_FieldDestroy( p3ynField, rc=rc )
      if (ESMF_LogFoundError(rc, PASSTHRU)) return

#ifdef TEST_WMESMFMD_PSTOKES
      call ESMF_FieldWrite( p1xField, "wmesmfmd_pstokes_1x.nc", &
        overwrite=.true., timeSlice=timeSlice, rc=rc )
      if (ESMF_LogFoundError(rc, PASSTHRU)) return
      call ESMF_FieldWrite( p1yField, "wmesmfmd_pstokes_1y.nc", &
        overwrite=.true., timeSlice=timeSlice, rc=rc )
      if (ESMF_LogFoundError(rc, PASSTHRU)) return
      call ESMF_FieldWrite( p2xField, "wmesmfmd_pstokes_2x.nc", &
        overwrite=.true., timeSlice=timeSlice, rc=rc )
      if (ESMF_LogFoundError(rc, PASSTHRU)) return
      call ESMF_FieldWrite( p2yField, "wmesmfmd_pstokes_2y.nc", &
        overwrite=.true., timeSlice=timeSlice, rc=rc )
      if (ESMF_LogFoundError(rc, PASSTHRU)) return
      call ESMF_FieldWrite( p3xField, "wmesmfmd_pstokes_3x.nc", &
        overwrite=.true., timeSlice=timeSlice, rc=rc )
      if (ESMF_LogFoundError(rc, PASSTHRU)) return
      call ESMF_FieldWrite( p3yField, "wmesmfmd_pstokes_3y.nc", &
        overwrite=.true., timeSlice=timeSlice, rc=rc )
      if (ESMF_LogFoundError(rc, PASSTHRU)) return   
      timeSlice = timeSlice + 1
#endif
!/
!/ End of CalcPStokes ----------------------------------------------- /
!/
      end subroutine CalcPStokes
!/ ------------------------------------------------------------------- /
!/
!/ End of module WMESMFMD -------------------------------------------- /
!/
      end module WMESMFMD
