#include "w3macros.h"
!/ ------------------------------------------------------------------- /
      PROGRAM W3OUNF
!/
!/                  +-----------------------------------+
!/                  | WAVEWATCH III           NOAA/NCEP |
!/                  |           F. Ardhuin              |
!/                  |           M. Accensi              |
!/                  |                        FORTRAN 90 |
!/                  | Last update :         12-Sep-2018 |
!/                  +-----------------------------------+
!/
!/    17-Mar-2010 : Creation                            ( version 3.14_SHOM )
!/    07-Nov-2011 : Debug for spectral output on UNST   ( version 4.04 )
!/    13-Mar-2012 : Update of NC attributes             ( version 4.04 )
!/    02-Apr-2013 : New structure of output fields.     ( version 4.10 )
!/    02-Jul-2013 : Bug correction for lat in unst grid ( version 4.11 )
!/    02-Nov-2013 : Removes unnecessary IDFM            ( version 4.12 )
!/    30-Apr-2014 : Correct group3 freq dim.            ( version 5.00 )
!/    23-May-2014 : Adding ice fluxes to W3SRCE         ( version 5.01 )
!/    14-Oct-2014 : Keep the output files opened        ( version 5.01 )
!/    27-Aug-2015 : ICEH and ICEF added as output       ( version 5.10 )
!/    10-Jan-2017 : Changes for US3D and USSP output    ( version 6.01 )
!/    01-May-2017 : Adds directional MSS parameters     ( version 6.04 )
!/    01-Mar-2018 : RTD option add variable de-rotation,( version 6.02 )
!/                  standard lat-lons and rotated grid
!/                  metadata
!/    15-May-2018 : Add namelist feature                ( version 6.05 )
!/    06-Jun-2018 : Add DEBUG/SETUP                     ( version 6.04 )
!/    27-Jun-2018 : Updated to handle SMC output.       ( version 6.05 )
!/    26-Jul-2018 : Changed reading of TABIPART         ( version 6.05 )
!/    12-Sep-2018 : Added extra partitioned fields      ( version 6.06 )
!/
!/    Copyright 2009-2013 National Weather Service (NWS),
!/       National Oceanic and Atmospheric Administration.  All rights
!/       reserved.  WAVEWATCH III is a trademark of the NWS. 
!/       No unauthorized use without permission.
!/
!  1. Purpose :
!
!     Post-processing of grid output to NetCDF files
!
!  2. Method :
!
!     Data is read from the grid output file out_grd.ww3 (raw data)
!     and from the file ww3_ounf.nml or ww3_ounf.inp (NDSI)
!     Model definition and raw data files are read using WAVEWATCH III
!     subroutines. Extra global NetCDF attributes may be read from 
!     ASCII file NC_globatt.inp.
!
!     Output types :
!      4 : NetCDF files
!
!  3. Parameters :
!
!  4. Subroutines used :
!
!      Name      Type  Module   Description
!     ----------------------------------------------------------------
!      W3NMOD    Subr. W3GDATMD Set number of model.
!      W3SETG    Subr.   Id.    Point to selected model.
!      W3NDAT    Subr. W3WDATMD Set number of model for wave data.
!      W3SETW    Subr.   Id.    Point to selected model for wave data.
!      W2NAUX    Subr. W3ADATMD Set number of model for aux data.
!      W3SETA    Subr.   Id.    Point to selected model for aux data.
!      ITRACE    Subr. W3SERVMD Subroutine tracing initialization.
!      STRACE    Subr.   Id.    Subroutine tracing.
!      NEXTLN    Subr.   Id.    Get next line from input filw
!      EXTCDE    Subr.   Id.    Abort program as graceful as possible.
!      STME21    Subr. W3TIMEMD Convert time to string.
!      TICK21    Subr.   Id.    Advance time.
!      DSEC21    Func.   Id.    Difference between times.
!      W3IOGR    Subr. W3IOGRMD Reading/writing model definition file.
!      W3IOGO    Subr. W3IOGOMD Reading/writing raw gridded data file.
!      W3EXNC    Subr. Internal Execute grid netcdf output.
!     ----------------------------------------------------------------
!
!  5. Called by :
!
!     None, stand-alone program.
!
!  6. Error messages :
!
!     Checks on input, checks in W3IOxx.
!
!  7. Remarks :
!
!  8. Structure :
!
!     See source code.
!
!  9. Switches :
!
!     !/S     Enable subroutine tracing.
!
! 10. Source code :
!
!/ ------------------------------------------------------------------- /
      USE CONSTANTS

!/
      USE W3WDATMD, ONLY: W3NDAT, W3SETW
      USE W3ADATMD, ONLY: W3NAUX, W3SETA
      USE W3ODATMD, ONLY: W3NOUT, W3SETO
      USE W3SERVMD, ONLY : ITRACE, NEXTLN, EXTCDE
!/S      USE W3SERVMD, ONLY : STRACE
      USE W3TIMEMD
      USE W3IOGRMD, ONLY: W3IOGR
      USE W3IOGOMD, ONLY: W3IOGO, W3READFLGRD, W3FLGRDFLAG
      USE W3INITMD, ONLY: WWVER, SWITCHES
      USE W3ODATMD, ONLY: NAPROC, NOSWLL, PTMETH, PTFCUT
!/DEBUG      USE W3ODATMD, only : IAPROC
!/
      USE W3GDATMD
      USE W3WDATMD, ONLY: TIME, WLV, ICE, ICEH, ICEF, BERG, UST, USTDIR
!/SETUP     USE W3WDATMD, ONLY: ZETA_SETUP
      USE W3ADATMD, ONLY: DW, UA, UD, AS, CX, CY, HS, WLM, T0M1, THM,  &
                          THS, FP0, THP0, DTDYN, FCUT,                 &
                          ABA, ABD, UBA, UBD, SXX, SYY, SXY, USERO,    &
                          PHS, PTP, PLP, PDIR, PSI, PWS, PWST, PNR,    &
                          PTM1, PT1, PT2, PEP,                         &
                          PTHP0, PQP, PSW, PPE, PGW, QP,               &
                          TAUOX, TAUOY, TAUWIX,                        &
                          TAUWIY, PHIAW, PHIOC, TUSX, TUSY, PRMS, TPMS,&
                          USSX, USSY, MSSX, MSSY, MSSD, MSCX, MSCY,    &
                          MSCD, CHARN, TWS,                            &
                          TAUWNX, TAUWNY, BHD, T02, HSIG, CGE,         &
                          T01, BEDFORMS, WHITECAP, TAUBBL, PHIBBL,     &
                          CFLTHMAX, CFLXYMAX, CFLKMAX, TAUICE, PHICE,  &
                          STMAXE, STMAXD, HMAXE, HCMAXE, HMAXD, HCMAXD,&
                          P2SMS, EF, US3D, TH1M, STH1M, TH2M, STH2M,   &
                          WN, USSP
      USE W3ODATMD, ONLY: NDSO, NDSE, SCREEN, NOGRP, NGRPP, IDOUT,     &
                          UNDEF, FLOGRD, FNMPRE, NOSWLL, NOGE
!
      USE W3NMLOUNFMD
      USE NETCDF

!/SMC      USE W3SMCOMD

      IMPLICIT NONE

!/
!/ ------------------------------------------------------------------- /
!/ Local parameters
!/
      TYPE(NML_FIELD_T)       :: NML_FIELD
      TYPE(NML_FILE_T)        :: NML_FILE
      TYPE(NML_SMC_T)         :: NML_SMC
!
      INTEGER                 :: NDSI, NDSM, NDSOG,                    &
                                 NDSTRC, NTRACE, IERR, I, I1F, I2F,    &
                                 IOTEST, NOUT,                         &
                                 IFI, IFJ, NCTYPE, IX1, IXN, IY1, IYN, &
                                 IOUT, S3, IRET, HASNC4,               &
                                 NBIPART, CNTIPART, NCVARTYPE, IPART,  &
                                 RTDNX, RTDNY
      INTEGER                 :: TOUT(2), TDUM(2),                     &
                                 NCIDS(NOGRP,NGRPP,6), STOPDATE(8)
!
      INTEGER, ALLOCATABLE    :: TABIPART(:)
!
!/S      INTEGER, SAVE           :: IENT = 0
!
      REAL                    :: DTREQ, DTEST
!
      CHARACTER*30            :: STRSTOPDATE, FILEPREFIX, STRINGIPART
      CHARACTER*1024          :: FLDOUT
      CHARACTER               :: COMSTR*1, IDTIME*23, IDDDAY*11
!
      LOGICAL                 :: FLG2D(NOGRP,NGRPP), FLG1D(NOGRP),     &
                                 VECTOR, TOGETHER, FLGNML

      LOGICAL                 :: SMCGRD = .FALSE.
!/
!/ ------------------------------------------------------------------- /
!/
! 1.  IO set-up.
!
      CALL W3NMOD ( 1, 6, 6 )
      CALL W3SETG ( 1, 6, 6 )
      CALL W3NDAT (    6, 6 )
      CALL W3SETW ( 1, 6, 6 )
      CALL W3NAUX (    6, 6 )
      CALL W3SETA ( 1, 6, 6 )
      CALL W3NOUT (    6, 6 )
      CALL W3SETO ( 1, 6, 6 )
!
      NDSI   = 10
      NDSM   = 20
      NDSOG  = 20
!
      NDSTRC =  6
      NTRACE = 10
      CALL ITRACE ( NDSTRC, NTRACE )
!
!/S      CALL STRACE (IENT, 'W3OUNF')
!
      WRITE (NDSO,900)

!/SMC      SMCGRD = .TRUE.
!
!
!--- - - - - - - - - - - - - - - - - - - - - - - - - - - - - - - - - -
! 2.  Read model definition file.
!
      CALL W3IOGR ( 'READ', NDSM )
      WRITE (NDSO,920) GNAME
!
!--- - - - - - - - - - - - - - - - - - - - - - - - - - - - - - - - - -
! 3.  Read general data and first fields from file
!
!/DEBUG      WRITE (NDSO,*) 'Before FLOGRD(2,1)=', FLOGRD(2,1)
!/DEBUG      WRITE (NDSO,*) 'IAPROC=', IAPROC
!/DEBUG      WRITE(740+IAPROC,*) 'Calling W3IOGO from ww3_ounf'
!/DEBUG      FLUSH(740+IAPROC)
      CALL W3IOGO ( 'READ', NDSOG, IOTEST )
!
      WRITE (NDSO,930)
      DO IFI=1, NOGRP
        DO IFJ=1, NGRPP
          IF ( FLOGRD(IFI,IFJ) ) WRITE (NDSO,931) IDOUT(IFI,IFJ)
        END DO
      END DO
!
!--- - - - - - - - - - - - - - - - - - - - - - - - - - - - - - - - - -
! 4.  Read requests from input file.
!

!
! process ww3_ounf namelist
!
      INQUIRE(FILE=TRIM(FNMPRE)//"ww3_ounf.nml", EXIST=FLGNML) 
      IF (FLGNML) THEN
        ! Read namelist
        CALL W3NMLOUNF (NDSI, TRIM(FNMPRE)//'ww3_ounf.nml', NML_FIELD, &
                        NML_FILE, NML_SMC, IERR)

! 4.1 Time setup
        READ(NML_FIELD%TIMESTRIDE, *)  DTREQ
        READ(NML_FIELD%TIMECOUNT, *)   NOUT
        READ(NML_FIELD%TIMESTART, *)   TOUT(1), TOUT(2)

! 4.2 Output fields
        FLDOUT = NML_FIELD%LIST
        CALL W3FLGRDFLAG ( NDSO, SCREEN, NDSE, FLDOUT, FLG1D,       &
                           FLG2D, 1, 1, IERR )
        IF (IERR.NE.0) GOTO 800 

! 4.3 Output type
        NCTYPE = NML_FILE%NETCDF
        NCVARTYPE = NML_FIELD%TYPE
        STRINGIPART = NML_FIELD%PARTITION
        TOGETHER = NML_FIELD%SAMEFILE
        FILEPREFIX = NML_FILE%PREFIX
        S3 = NML_FIELD%TIMESPLIT
        IF(SMCGRD) THEN
!/SMC          SMCTYPE = NML_SMC%TYPE
!/SMC          SXO = NML_SMC%SXO
!/SMC          SYO = NML_SMC%SYO
!/SMC          EXO = NML_SMC%EXO
!/SMC          EYO = NML_SMC%EYO
!/SMC          CELFAC = NML_SMC%CELFAC
!/SMC          NOVAL = NML_SMC%NOVAL
        ELSE
          IX1 = NML_FILE%IX0
          IXN = NML_FILE%IXN 
          IY1 = NML_FILE%IY0 
          IYN = NML_FILE%IYN
        ENDIF ! SMCGRD
      END IF ! FLGNML

!
! process old ww3_ounf.inp format
!
      IF (.NOT. FLGNML) THEN
        OPEN (NDSI,FILE=TRIM(FNMPRE)//'ww3_ounf.inp',STATUS='OLD',ERR=800,IOSTAT=IERR)
        REWIND (NDSI)

        READ (NDSI,'(A)',END=801,ERR=802,IOSTAT=IERR) COMSTR
        IF (COMSTR.EQ.' ') COMSTR = '$'
        WRITE (NDSO,901) COMSTR
        CALL NEXTLN ( COMSTR , NDSI , NDSE )

! 4.1 Time setup
        READ (NDSI,*,END=801,ERR=802) TOUT, DTREQ, NOUT

! 4.2 Output fields
        CALL W3READFLGRD ( NDSI, NDSO, SCREEN, NDSE, COMSTR, FLG1D,      &
                           FLG2D, 1, 1, IERR )
        IF (IERR.NE.0) GOTO 800 

! 4.3 Output type
        CALL NEXTLN ( COMSTR , NDSI , NDSE )
        READ (NDSI,*,END=801,ERR=802) NCTYPE, NCVARTYPE
        CALL NEXTLN ( COMSTR , NDSI , NDSE )
        READ (NDSI,'(A)',END=801,ERR=802) STRINGIPART
        CALL NEXTLN ( COMSTR , NDSI , NDSE )
        READ (NDSI,*,END=801,ERR=802) TOGETHER
        CALL NEXTLN ( COMSTR , NDSI , NDSE )
        FILEPREFIX= 'ww3.'
        READ (NDSI,*,END=801,ERR=802) FILEPREFIX
        CALL NEXTLN ( COMSTR , NDSI , NDSE )
        READ (NDSI,*,END=801,ERR=802) S3
        CALL NEXTLN ( COMSTR , NDSI , NDSE )

!/SMC        ! SMC output type (1 or 2)
!/SMC        READ (NDSI,*,END=801,ERR=802) SMCTYPE
!/SMC        IF(SMCTYPE .EQ. 1) THEN  ! Flat sea point output
!/SMC           CALL NEXTLN ( COMSTR , NDSI , NDSE )
!/SMC           READ (NDSI,*,END=801,ERR=802) SXO, SYO, EXO, EYO
!/SMC        ELSE IF(SMCTYPE .EQ. 2) THEN  ! Regular grid output
!/SMC           CALL NEXTLN ( COMSTR , NDSI , NDSE )
!/SMC           READ (NDSI,*,END=801,ERR=802) SXO, SYO, EXO, EYO, CELFAC
!/SMC        ENDIF
!/SMC        NOVAL = UNDEF
        IF( .NOT. SMCGRD) THEN
           READ (NDSI,*,END=801,ERR=802) IX1, IXN, IY1, IYN
        ENDIF

        CLOSE(NDSI,ERR=800,IOSTAT=IERR)

      END IF ! .NOT. FLGNML

!

! 4.1 Time setup
      DTREQ  = MAX ( 0. , DTREQ )
      IF ( DTREQ.EQ.0. ) NOUT = 1
      NOUT   = MAX ( 1 , NOUT )
      CALL STME21 ( TOUT , IDTIME )
      WRITE (NDSO,940) IDTIME
      TDUM = 0
      CALL TICK21 ( TDUM , DTREQ )
      CALL STME21 ( TDUM , IDTIME )
      IF ( DTREQ .GE. 86400. ) THEN
        WRITE (IDDDAY,'(I10,1X)') INT(DTREQ/86400.)
      ELSE
        IDDDAY = '           '
      END IF
      IDTIME(1:11) = IDDDAY
      IDTIME(21:23) = '   '
      WRITE (NDSO,941) IDTIME, NOUT


! 4.2 Output fields
      DO IFI=1, NOGRP
        DO IFJ=1, NGRPP
          IF ( FLG2D(IFI,IFJ) ) THEN
            IF ( FLOGRD(IFI,IFJ) ) THEN
              WRITE (NDSO,946) IDOUT(IFI,IFJ), ' '
            ELSE
              WRITE (NDSO,946) IDOUT(IFI,IFJ), '*** NOT AVAILABLE ***'
              FLG2D(IFI,IFJ) = .FALSE.
            END IF
          END IF
        END DO
      END DO


! 4.3 Output type
!!      NBIPART=0
!!      DO I=1,29
!!        IF ((STRINGIPART(I:I+1).EQ.'0').OR.(STRINGIPART(I:I+1).EQ.'1')      &
!!            .OR.(STRINGIPART(I:I+1).EQ.'2').OR.(STRINGIPART(I:I+1).EQ.'3')  &
!!            .OR.(STRINGIPART(I:I+1).EQ.'4').OR.(STRINGIPART(I:I+1).EQ.'5')) THEN
!!          NBIPART=NBIPART+1
!!        END IF
!!      END DO
!!      ALLOCATE(TABIPART(NBIPART))
!!      CNTIPART=0
!!      DO I=1,29
!!        IF ((STRINGIPART(I:I+1).EQ.'0').OR.(STRINGIPART(I:I+1).EQ.'1')      &
!!            .OR.(STRINGIPART(I:I+1).EQ.'2').OR.(STRINGIPART(I:I+1).EQ.'3')  &
!!            .OR.(STRINGIPART(I:I+1).EQ.'4').OR.(STRINGIPART(I:I+1).EQ.'5')) THEN
!!          CNTIPART=CNTIPART+1
!!          READ(STRINGIPART(I:I+1),'(I1)') TABIPART(CNTIPART)
!!        END IF
!!      END DO

      ! Alternative processing of TABIPART to capture requests 
      ! greater than NOSWLL (C.Bunney):
      ALLOCATE(TABIPART(NOSWLL))
      NBIPART=0
      DO I=1,30
        IF(STRINGIPART(I:I) .EQ. ' ') CYCLE
        READ(STRINGIPART(I:I),'(I1)') IPART
        IF(IPART .GT. NOSWLL) THEN
           WRITE(NDSO, 1500) IPART, NOSWLL
           CYCLE
        ENDIF
        NBIPART = NBIPART + 1
        TABIPART(NBIPART) = IPART
      ENDDO
!
      IF ( NCTYPE.LT.3 .OR. NCTYPE.GT.4 ) THEN
        WRITE (NDSE,1010) NCTYPE
        CALL EXTCDE ( 1 )
      END IF
      ! if NCTYPE = 4 checking that it is compiled with NC4
      HASNC4=0
!/NC4      HASNC4=1
      IF ((HASNC4 .EQ. 0).AND.(NCTYPE.EQ.4)) THEN
        WRITE (NDSE,1012)
        CALL EXTCDE ( 1 )
      END IF

!/SMC      WRITE(NDSO, 4100)
!/SMC      IF(SMCTYPE .EQ. 1) THEN  ! Flat sea point output
!/SMC        ALLOCATE(SMCMASK(NSEA))
!/SMC        ALLOCATE(SMCIDX(NSEA))
!/SMC        SMCMASK(:) = .FALSE.
!/SMC        CALL SMC_INTERP()
!/SMC        SMCNOUT = COUNT(SMCMASK)
!/SMC        NXO = SMCNOUT
!/SMC        NYO = 1
!/SMC        WRITE(NDSO, 4120) SMCNOUT
!/SMC      ELSE IF(SMCTYPE .EQ. 2) THEN  ! Regular grid output
!/SMC        ! Calculate regridding weights:
!/SMC        ALLOCATE(XIDX(NSEA), YIDX(NSEA), XSPAN(NSEA),                   &
!/SMC                 YSPAN(NSEA), WTS(NSEA), SMCIDX(NSEA))
!/SMC        CALL SMC_INTERP()
!/SMC        WRITE(NDSO, 4110) NXO, NYO, SXO, SYO, DXO, DYO
!/SMC
!/SMC        ! Allocate space for coverage array and new MAPSTA array
!/SMC        ALLOCATE(COV(NXO,NYO), MAPSMC(NXO,NYO))
!/SMC      ENDIF
!/SMC
!/SMC      ! CB: IXN and IXY are calculated by SMC_INTERP for SMC GRID
!/SMC      IX1 = 1
!/SMC      IXN = NXO
!/SMC      IY1 = 1
!/SMC      IYN = NYO
!/SMC     
!/SMC      ! Also store NXO and NYO in __local__ RTDNX and RTDNY variables.
!/SMC      ! This avoids compilation errors when the RTD switch is enabled
!/SMC      ! but the SMC switch is not. TODO: Remove this when C-preprocessor
!/SMC      ! is used in preference to switches.
!/SMC      RTDNX = NXO
!/SMC      RTDNY = NYO
!/SMC

      IF(.NOT. SMCGRD) THEN
        IX1    = MAX ( IX1 , 1 )
        IXN    = MIN ( IXN , NX )
        IY1    = MAX ( IY1 , 1 )
        IYN    = MIN ( IYN , NY )
        WRITE (NDSO,3940) IX1, IXN, IY1, IYN
      ENDIF ! SMCGRD

      VECTOR = .TRUE.
!
!--- - - - - - - - - - - - - - - - - - - - - - - - - - - - - - - - - -
! 5.  Time management.
!
      IOUT = 0
      NCIDS(:,:,:) = 0
      WRITE (NDSO,970)


! 5.1 Loops on out_grd.ww3 to read the time and data
      DO
        DTEST  = DSEC21 ( TIME , TOUT )
        IF ( DTEST .GT. 0. ) THEN
          CALL W3IOGO ( 'READ', NDSOG, IOTEST )
            IF ( IOTEST .EQ. -1 ) THEN
              WRITE (NDSO,944)
              EXIT
            END IF
          CYCLE
        END IF
        IF ( DTEST .LT. 0. ) THEN
          CALL TICK21 ( TOUT , DTREQ )
          CYCLE
        END IF


! 5.1.1 Increments the time counter IOUT
        IOUT   = IOUT + 1
        CALL STME21 ( TOUT , IDTIME )
        WRITE (NDSO,971) IDTIME


! 5.1.2  Processes the variable value for the time step IOUT
        CALL W3EXNC ( NX, NY, IX1, IXN, IY1, IYN, NSEA, FILEPREFIX,   &
                      E3DF, P2MSF, US3DF, USSPF, NCTYPE, TOGETHER, NCVARTYPE,&
                      FLG2D, NCIDS, S3, STRSTOPDATE )

! 5.1.3 Defines the stop date
        CALL T2D(TOUT,STOPDATE,IERR)
        WRITE(STRSTOPDATE,'(I4.4,A,4(I2.2,A),I2.2)') STOPDATE(1),'-',STOPDATE(2), &
              '-',STOPDATE(3),' ',STOPDATE(5),':',STOPDATE(6),':',STOPDATE(7) 

        CALL TICK21 ( TOUT , DTREQ )
        IF ( IOUT .GE. NOUT ) EXIT
      END DO


! 5.2 Closes the netCDF file
      IF (TOGETHER .AND. NCIDS(1,1,1).NE.0) THEN
        IRET = NF90_REDEF(NCIDS(1,1,1))
        CALL CHECK_ERR(IRET)
        IRET=NF90_PUT_ATT(NCIDS(1,1,1),NF90_GLOBAL,'stop_date',STRSTOPDATE)
        CALL CHECK_ERR(IRET)
        IRET=NF90_CLOSE(NCIDS(1,1,1))
        CALL CHECK_ERR(IRET)
      END IF
!
      DO IFI=1, NOGRP
        DO IFJ=1, NGRPP
          IF ( FLG2D(IFI,IFJ) ) THEN
            IF ( FLOGRD(IFI,IFJ) ) THEN
              IF (.NOT. TOGETHER) THEN
                IF (NCIDS(IFI,IFJ,1).NE.0) THEN
                  IRET = NF90_REDEF(NCIDS(IFI,IFJ,1))
                  CALL CHECK_ERR(IRET)
                  IRET=NF90_PUT_ATT(NCIDS(IFI,IFJ,1),NF90_GLOBAL,'stop_date',STRSTOPDATE)
                  CALL CHECK_ERR(IRET)
                  IRET=NF90_CLOSE(NCIDS(IFI,IFJ,1))
                  CALL CHECK_ERR(IRET)
                END IF ! NCIDS
                ! close partition files (except part 0 which is already closed by (IFI,IFJ,1)
                IF ((IFI.EQ.4).AND.(IFJ.LE.NOGE(IFI))) THEN
                  DO IPART=1,NOSWLL
                    IF (NCIDS(IFI,IFJ,IPART+1).NE.0) THEN
                      IRET = NF90_REDEF(NCIDS(IFI,IFJ,IPART+1))
                      CALL CHECK_ERR(IRET)
                      IRET=NF90_PUT_ATT(NCIDS(IFI,IFJ,IPART+1),NF90_GLOBAL,'stop_date',STRSTOPDATE)
                      CALL CHECK_ERR(IRET)

                      IRET=NF90_CLOSE(NCIDS(IFI,IFJ,IPART+1))
                      CALL CHECK_ERR(IRET)
                    END IF ! NCIDS
                  END DO ! IPART
                END IF ! partition
              ! else if together
              ELSE
                ! close frequency file
                IF ( ((IFI.EQ.6).AND.(IFJ.EQ.8)) .OR.                 &
                     ((IFI.EQ.6).AND.(IFJ.EQ.9)) .OR.                 &
                     (IFI.EQ.3) ) THEN
                  IF (NCIDS(IFI,IFJ,1).NE.0) THEN
                    IRET = NF90_REDEF(NCIDS(IFI,IFJ,1))
                    CALL CHECK_ERR(IRET)
                    IRET=NF90_PUT_ATT(NCIDS(IFI,IFJ,1),NF90_GLOBAL,'stop_date',STRSTOPDATE)
                    CALL CHECK_ERR(IRET)
                    IRET=NF90_CLOSE(NCIDS(IFI,IFJ,1))
                    CALL CHECK_ERR(IRET)
                  END IF ! NCIDS
                END IF ! IFI
              END IF ! TOGETHER
            END IF ! FLOGRD
          END IF ! FLG2D
        END DO ! IFJ
      END DO ! IFI

!
      GOTO 888
!
! Escape locations read errors :
!
  800 CONTINUE
      WRITE (NDSE,1000) IERR
      CALL EXTCDE ( 10 )
!
  801 CONTINUE
      WRITE (NDSE,1001)
      CALL EXTCDE ( 11 )
!
  802 CONTINUE
      WRITE (NDSE,1002) IERR
      CALL EXTCDE ( 12 )
!
  888 CONTINUE
      WRITE (NDSO,999)
!
! Formats
!
  900 FORMAT (/15X,'   *** WAVEWATCH III Field output postp. ***   '/ &
               15X,'==============================================='/)
  901 FORMAT ( '  Comment character is ''',A,''''/)
!
  920 FORMAT ( '  Grid name : ',A/)
!
  930 FORMAT ( '  Fields in file : '/                                 &
               ' --------------------------')
  931 FORMAT ( '      ',A)
!
  940 FORMAT (/'  Output time data : '/                               &
               ' --------------------------------------------------'/ &
               '      First time         : ',A)
  941 FORMAT ( '      Interval           : ',A/                       &
               '      Number of requests : ',I10)
  944 FORMAT (/'      End of file reached '/)
  946 FORMAT ( '      ',A,2X,A)
!
 3940 FORMAT ( '      X range : ',2I7/                                &
               '      Y range : ',2I7)
!
!/SMC 4100 FORMAT (//'  SMC grid output :' /                               &
!/SMC!
!/SMC               ' --------------------------------------------------')
!/SMC 4110 FORMAT ( '   SMC to regular lat/lon grid using cell averaging' /&
!/SMC               '   Aligned output grid definition: ' /                &
!/SMC               '      NX, NY           : ', 2I8 /                     &
!/SMC               '      X0, Y0           : ', 2F8.3 /                   &
!/SMC               '      DX, DY           : ', 2F8.5 )
!/SMC 4120 FORMAT ( '   Flat seapoint dimensioned SMC output file' /       &
!/SMC               '      Num seapoints    : ',I9 )
!/SMC!
!/SMC 4130 FORMAT ( '   SMC regridding to regular lat/lon grid.' /         &
!/SMC               '   Output grid definition: ' /                        &
!/SMC               '      NX, NY           : ', 2I8 /                     &
!/SMC               '      X0, Y0           : ', 2F8.3 /                   &
!/SMC               '      DX, DY           : ', 2F8.5 /                   &
!/SMC               '      Interpolate ?    : ', L )
!
  970 FORMAT (/'  Generating files '/                                 &
               ' --------------------------------------------------')
  971 FORMAT ( '      Files for ',A)
!
  999 FORMAT (/'  End of program '/                                   &
               ' ========================================='/          &
               '         WAVEWATCH III Field output '/)
!
 1000 FORMAT (/' *** WAVEWATCH III ERROR IN W3OUNF : '/               &
               '     ERROR IN OPENING INPUT FILE'/                    &
               '     IOSTAT =',I5/)
!
 1001 FORMAT (/' *** WAVEWATCH III ERROR IN W3OUNF : '/               &
               '     PREMATURE END OF INPUT FILE'/)
!
 1002 FORMAT (/' *** WAVEWATCH III ERROR IN W3OUNF : '/               &
               '     ERROR IN READING FROM INPUT FILE'/               &
               '     IOSTAT =',I5/)
!
 1010 FORMAT (/' *** WAVEWATCH III ERROR IN W3OUNF : '/               &
               '     ILLEGAL TYPE, NCTYPE =',I4/)
 1012 FORMAT (/' *** WAVEWATCH III ERROR IN W3OUNF : '/               &
               '     NCTYPE = 4 BUT NOT COMPILED WITH NC4'/)
!
 1500 FORMAT (/' *** WAVEWATCH III WARNING IN W3EXNC : '/             &
               '     IGNORING REQUEST FOR IPART =',I2, /              &
               '     MAX SWELL PARITIONS (NOSWLL) =',I2 /)
!
!/
!/ Internal subroutine W3EXNC ---------------------------------------- /
!/
      CONTAINS
!/ ------------------------------------------------------------------- /
      SUBROUTINE W3EXNC ( NX, NY, IX1, IXN, IY1, IYN, NSEA,             &
                          FILEPREFIX, E3DF, P2MSF, US3DF, USSPF,NCTYPE, &
                          TOGETHER, NCVARTYPEI, FLG2D, NCIDS, S3, STRSTOPDATE )
!/
!/                  +-----------------------------------+
!/                  |           F. Ardhuin              |
!/                  |           M. Accensi              |
!/                  |                        FORTRAN 90 |
!/                  | Last update :         14-Oct-2014 |
!/                  +-----------------------------------+
!/
!/    17-Mar-2010 : Creation                            ( version 3.14_SHOM )
!/    28-Feb-2013 : New option for float output         ( version 4.08 )
!/    02-Apr-2013 : New structure of output fields.     ( version 4.09 )
!/    12-Apr-2013 : Allows curvilinear grids            ( version 4.10 ) 
!/    30-Apr-2014 : Correct group3 freq dim.            ( version 5.00 )
!/    23-May-2014 : Adding ice fluxes to W3SRCE         ( version 5.01 )
!/    14-Oct-2014 : Keep the output files opened        ( version 5.01 )
!/
!  1. Purpose :
!
!     Perform actual grid output in NetCDF file.
!
!  3. Parameters :
!
!     Parameter list
!     ----------------------------------------------------------------
!       NX/Y    Int.  I  Grid dimensions.
!       IX1/IXN Int.  I  Grid indexes along X
!       IY1/IYN Int.  I  Grid indexes along Y
!       NSEA    Int.  I  Number of sea points.
!     ----------------------------------------------------------------
!
!     Internal parameters
!     ----------------------------------------------------------------
!       FLTWO   Log.  Flags for two-dimensional field X Y.
!       FLDIR   Log.  Flags for two-dimensional, directional field.
!       FLFRQ   Log.  Flags for frequency array (3D field)
!       X1, X2, XX, XY
!               R.A.  Output fields
!     ----------------------------------------------------------------
!
!  4. Subroutines used :
!
!      Name      Type  Module   Description
!     ----------------------------------------------------------------
!      STRACE    Subr. W3SERVMD Subroutine tracing.
!      EXTCDE    Subr.   Id.    Abort program as graceful as possible.
!      W3S2XY    Subr.   Id.    Convert from storage to spatial grid.
!      PRTBLK    Subr. W3ARRYMD Print plot of array.
!      OUTA2I    Subr.   Id.    Print array of INTEGERS.
!     ----------------------------------------------------------------
!
!  5. Called by :
!
!     Main program in which it is contained.
!
!  6. Error messages :
!
!       None.
!
!  7. Remarks :
!
!     - Note that arrays CX and CY of the main program now contain
!       the absolute current speed and direction respectively.
!
!  8. Structure :
!
!     See source code.
!
!  9. Switches :
!
!       !/S  Enable subroutine tracing.
!       !/T  Enable test output.
!
! 10. Source code :
!
!/ ------------------------------------------------------------------- /
      USE W3SERVMD, ONLY : W3S2XY
!/RTD      USE W3SERVMD, ONLY : W3THRTN, W3XYRTN, W3EQTOLL
      USE W3ARRYMD, ONLY : OUTA2I, PRTBLK
      USE W3GDATMD, ONLY : SIG, GTYPE, FLAGLL, MAPSTA, MAPST2
!/T      USE W3ODATMD, ONLY : NDST
      USE NETCDF
      IMPLICIT NONE

!/
!/ ------------------------------------------------------------------- /
!/ Parameter list
!/
      INTEGER, INTENT(IN)     :: NX, NY, IX1, IXN, IY1, IYN, NSEA,     &
                                 E3DF(3,5), P2MSF(3), US3DF(3),        & 
                                 USSPF(2), NCTYPE, NCVARTYPEI
      CHARACTER(30)           :: FILEPREFIX
      LOGICAL, INTENT(IN)     :: TOGETHER
      LOGICAL, INTENT(IN)     :: FLG2D(NOGRP,NGRPP)
      INTEGER, INTENT(INOUT)  :: NCIDS(NOGRP,NGRPP,6), S3
      CHARACTER*30,INTENT(IN) :: STRSTOPDATE
!/
!/ ------------------------------------------------------------------- /
!/ Local parameters
!/
      INTEGER                 :: IFI, IFJ, MFILL, I, J, ISEA, IX, IY,  &
                                 I1, J1, IPART, INDEXIPART, COORDTYPE
      INTEGER                 :: S1, S2, S4, S5, NCID, OLDNCID,        & 
                                 MAPSTAOUT, NDSDAT, VMIN, VMAX,        &
                                 NFIELD, N, IRET, IK, EXTRADIM, IVAR,  &
                                 IVAR1, IDVAROUT, NCVARTYPE
      INTEGER                 :: DIMID(6), VARID(300), START(4),       &
                                 COUNT(4), DIMLN(6),START1D(2),        &
                                 COUNT1D(2), DIMFIELD(3),              &
                                 STARTDATE(8), CURDATE(8), REFDATE(8), &
                                 MAP(NX+1,NY), MP2(NX+1,NY)
!
!/NC4    INTEGER                  :: DEFLATE=1
!/S      INTEGER, SAVE           :: IENT   =   0
!
      INTEGER, ALLOCATABLE    :: TRIGP2(:,:)
      ! Make the below allocatable to avoid stack overflow on some machines 
      INTEGER(KIND=2), ALLOCATABLE    :: MX1(:,:), MXX(:,:), MYY(:,:), &
                                         MXY(:,:), MAPOUT(:,:)
!
      REAL                    :: FSC, FSC3, CABS, UABS, MFILLR
!/BT4   REAL, PARAMETER            :: LOG2=LOG(2.)
!
      REAL,DIMENSION(:),  ALLOCATABLE    :: LON, LAT, FREQ
      REAL,DIMENSION(:,:),  ALLOCATABLE  :: LON2D, LAT2D, ANGLD2D
!/RTD      REAL,DIMENSION(:,:),  ALLOCATABLE  :: LON2DEQ, LAT2DEQ
      ! Make the below allocatable to avoid stack overflow on some machines 
      REAL, ALLOCATABLE       :: X1(:,:), X2(:,:), XX(:,:), XY(:,:),   &
                                 XK(:,:,:), XXK(:,:,:), XYK(:,:,:),    & 
                                 MX1R(:,:), MXXR(:,:), MYYR(:,:),      &
                                 MXYR(:,:)
!
      DOUBLE PRECISION        :: OUTJULDAY
      DOUBLE PRECISION        :: SXD, SYD, X0D, Y0D
!
      CHARACTER*80            :: VARNM(8),VARNL(8)
      CHARACTER*120           :: VARNS(8),VARNG(8), VARND(8), STR2
      CHARACTER*256           :: VARNC(8), PARTCOM
      CHARACTER*20            :: UNITVAR(3),FORMAT1
      CHARACTER*30            :: STRSTARTDATE
      CHARACTER               :: FNAMENC*50,                           &
                                 ENAME*6,FORMF*11, UNITS*24, UNITS2*24
      CHARACTER, SAVE         :: OLDTIMEID*16 = '0000000000000000'
      CHARACTER, SAVE         :: TIMEID*16 = '0000000000000000'
!
      LOGICAL                 :: FLFRQ, FLDIR, FEXIST, FREMOVE
      LOGICAL                 :: CUSTOMFRQ=.FALSE.
!/T      LOGICAL                 :: LTEMP(NGRPP)

!/
!/ ------------------------------------------------------------------- /
!/
!
!/S      CALL STRACE (IENT, 'W3EXNC')
!
!/T      DO IFI=1, NOGRP 
!/T        LTEMP  = FLG2D(IFI,:)
!/T        WRITE (NDST,9000) IFI, LTEMP
!/T        END DO
!/T      WRITE (NDST,9001) NCTYPE, IX1, IXN, IY1, IYN, VECTOR
!
!--- - - - - - - - - - - - - - - - - - - - - - - - - - - - - - - - - -
! 1.  Preparations
!
      ! Allocate output storage. This is required with the introduction
      ! of the SMC grid output as the regridded output grid dimensions could
      ! conceivably be larger than the NX and NY values. Making these (large)
      ! arrays allocatable also moves them to the heap and avoids stack
      ! overflow issues that can occur on some architectures. (Chris Bunney)
      IF(SMCGRD) THEN
!/SMC        ALLOCATE(X1(NXO,NYO), X2(NXO,NYO), XX(NXO,NYO), XY(NXO,NYO))
!/SMC        ALLOCATE(XK(NXO,NYO,NK), XXK(NXO,NYO,NK), XYK(NXO,NYO,NK))
!/SMC
!/SMC        ALLOCATE(MX1(NXO,NYO), MXX(NXO,NYO), MYY(NXO,NYO),               &
!/SMC                 MXY(NXO,NYO), MAPOUT(NXO,NYO))
!/SMC        ALLOCATE(MX1R(NXO,NYO), MXXR(NXO,NYO), MYYR(NXO,NYO), MXYR(NXO,NYO))
      ELSE
        ALLOCATE(X1(NX+1,NY),X2(NX+1,NY),XX(NX+1,NY),XY(NX+1,NY))
        ALLOCATE(XK(NX+1,NY,NK), XXK(NX+1,NY,NK), XYK(NX+1,NY,NK))
        ALLOCATE(MX1(NX,NY), MXX(NX,NY), MYY(NX,NY), MXY(NX,NY), MAPOUT(NX,NY))
        ALLOCATE(MX1R(NX,NY), MXXR(NX,NY), MYYR(NX,NY), MXYR(NX,NY))
      ENDIF ! SMCGRD

      X1     = UNDEF
      X2     = UNDEF
      XX     = UNDEF
      XY     = UNDEF
      ! CB: Dont output MAPSTA for SMC grid - it does not make sense
      IF( SMCGRD ) THEN
        MAPSTAOUT = 0
      ELSE
        MAPSTAOUT = 1
      ENDIF
      NCVARTYPE  = NCVARTYPEI
      NDSDAT=30
      NCID = 0
!
!
      CALL U2D('days since 1990-01-01 00:00:00',REFDATE,IERR)

! 1.1 Set-up transfer files
      MFILL  = NF90_FILL_SHORT
      MFILLR  = NF90_FILL_FLOAT
      IF (GTYPE.NE.UNGTYPE) THEN
        COORDTYPE=1
      ELSE
        COORDTYPE=2
      ENDIF

! 1.2 Sets the date as ISO8601 convention 
      ! S3 defines the number of characters in the date for the filename
      ! S3=4-> YYYY, S3=6 -> YYYYMM, S3=10 -> YYYYMMDDHH
      ! Setups min and max date format
      IF (S3.LT.4) S3=4 
      IF (S3.GT.10) S3=10 
!
      ! Defines the format of FILETIME
      S5=S3-8
      S4=S3
      OLDTIMEID=TIMEID
      ! if S3=>YYYYMMDDHH then filetime='YYYYMMDDTHHZ'
      IF (S3.EQ.10) THEN 
        S4=S4+2 ! add chars for ISO8601 : day T hours Z
        WRITE(FORMAT1,'(A,I1,A,I1,A)') '(I8.8,A1,I',S5,'.',S5,',A1)'
        WRITE (TIMEID,FORMAT1) TIME(1), 'T', &
               FLOOR(REAL(TIME(2))/NINT(10.**(6-S5))), 'Z'
      ! if S3=>YYYYMMDD then filetime='YYYYMMDD'
      ELSE IF (S3.EQ.8) THEN
        WRITE(FORMAT1,'(A,I1,A,I1,A)') '(I',S3,'.',S3,')'
        WRITE (TIMEID,FORMAT1) TIME(1)
      ! if S3=>YYYYMM then filetime='YYYYMM'
      ! or S3=>YYYY then filetime='YYYY'
      ELSE 
        WRITE(FORMAT1,'(A,I1,A,I1,A)') '(I',S3,'.',S3,')'
        WRITE (TIMEID,FORMAT1) FLOOR(REAL(TIME(1))/NINT(10.**(8-S3)))
      END IF       
      ! redefines filename with updated date format
      S1=LEN_TRIM(FILEPREFIX)
      FNAMENC=''
      FNAMENC(1:S1)=FILEPREFIX(1:S1)
      FNAMENC(S1+1:S1+S4) = TIMEID(1:S4)

      ! Create partitioning method comment string:
      IF ( PTMETH .EQ. 1 ) THEN
        PARTCOM = "Wind sea and swells defined using topographic " //  &
                  "partitions and partition wave-age cut-off "     //  &
                  "(WWIII default scheme)"
      ELSE IF ( PTMETH .EQ. 2 ) THEN
        PARTCOM = "Wind sea and swells defined using topographic " //  &
                  "partitions and spectral wave-age cut-off"
      ELSE IF ( PTMETH .EQ. 3 ) THEN
        PARTCOM = "Wave components defined using topographic "     //  &
                  "partitions only"
      ELSE IF ( PTMETH .EQ. 4 ) THEN
        PARTCOM = "Wind sea and swell defined using spectral wave-age cut-off"
      ELSE IF ( PTMETH .EQ. 5 ) THEN
        WRITE(PARTCOM, '("Wave components defined using ",F5.3,'   //  &
                  '"Hz spectral frequency cutoff")') PTFCUT
      ELSE
        WRITE(PARTCOM, '("PTM_",I1,"_Uknknown")') PTMETH
      ENDIF

!/SMC!
!/SMC!---  Update MAPSMC for SMC type 2 output. This needs to be
!/SMC!     done at each timestep as MAPSTA could change if there
!/SMC!     are water level or ice input chagnes.
!/SMC!
!/SMC      IF(SMCTYPE .EQ. 2) CALL MAPSTA_SMC()
!
!--- - - - - - - - - - - - - - - - - - - - - - - - - - - - - - - - - -
! 2.  Loop over output fields.
!

      ! Instanciates the field and group indexes
      I1=0
      J1=0
!
      DO IFI=1, NOGRP
        DO IFJ=1, NGRPP
          ENAME='      '
          ! If the flag for the variable IFI of the group IFJ is .TRUE.
          IF ( FLG2D(IFI,IFJ) ) THEN
            ! Instanciates the partition array
            INDEXIPART=1
            IPART=TABIPART(INDEXIPART)
            VARNS(:)=''


!  Loop over IPART for partition variables
555         CONTINUE

            ! Initializes the index of field and group at the first flag FLG2D at .TRUE.
            IF (I1.EQ.0) I1=IFI
            IF (J1.EQ.0) J1=IFJ
            FORMF  = '(1X,32I5)'
!/T            WRITE (NDST,9020) IDOUT(IFI,IFJ)
!
! 2.1 Set output arrays and parameters
!
            ! Initializes the flags for freq and direction dimensions
            FLFRQ = .FALSE.
            FLDIR = .FALSE.
            UNITS2='SAME'
            IF (NCVARTYPEI.EQ.3) NCVARTYPE=2
!
            IF ( IFI .EQ. 1 .AND. IFJ .EQ. 1 ) THEN
              FSC    = 0.5
              UNITS  = 'm'
              NFIELD = 1
              ENAME  = '.dpt'
              IF( SMCGRD ) THEN
!/SMC                 CALL W3S2XY_SMC( DW(1:NSEA), X1 )
              ELSE ! IF(SMCGRD)
                 CALL W3S2XY ( NSEA, NSEA, NX+1, NY, DW(1:NSEA)     &
                                                            , MAPSF, X1 )
              ENDIF
              VARNM(1)='dpt'
              VARNL(1)='depth'
              VARNS(1)='depth'
              VARNG(1)='depth'
              VARNC(1)=''
              VARND(1)=''
              VMIN = -90000 
              VMAX = 140000
!
            ELSE IF ( IFI .EQ. 1 .AND. IFJ .EQ. 2 ) THEN
              FSC    = 0.01
              ENAME  = '.cur'
              UNITS  = 'm s-1'
              !! Note - CX and CY read in from .ww3 file are X-Y vectors
!/RTD              ! Rotate x,y vector back to standard pole
!/RTD              IF ( FLAGUNR ) CALL W3XYRTN(NSEA, CX(1:NSEA), CY(1:NSEA), AnglD)
              IF( SMCGRD ) THEN
!/SMC                 CALL W3S2XY_SMC( CX(1:NSEA), XX )
!/SMC                 CALL W3S2XY_SMC( CY(1:NSEA), XY )
              ELSE
                 CALL W3S2XY ( NSEA, NSEA, NX+1, NY, CX(1:NSEA)        &
                                                        , MAPSF, XX )
                 CALL W3S2XY ( NSEA, NSEA, NX+1, NY, CY(1:NSEA)        &
                                                        , MAPSF, XY )
              ENDIF
              !! Commented out unnecessary statements below for time being
              !! CX,CY are in north-east convention and X1,X2
              !! are not actually written out below
              !DO ISEA=1, NSEA
              !  CABS   = SQRT(CX(ISEA)**2+CY(ISEA)**2)
              !  IF ( CABS .GT. 0.05 ) THEN
              !    CY(ISEA) = MOD ( 630. -                         &
              !              RADE*ATAN2(CY(ISEA),CX(ISEA)) , 360. )
              !  ELSE
              !    CY(ISEA) = UNDEF
              !    END IF
              !  CX(ISEA) = CABS
              !  END DO
              !CALL W3S2XY ( NSEA, NSEA, NX+1, NY, CX(1:NSEA)        &
              !                                          , MAPSF, X1 )
              !CALL W3S2XY ( NSEA, NSEA, NX+1, NY, CY(1:NSEA)        &
              !                                          , MAPSF, X2 )
              NFIELD=2
              VARNM(1)='ucur'
              VARNM(2)='vcur'
              VARNL(1)='eastward current'
              VARNL(2)='northward current'
              VARNS(1)='eastward_sea_water_velocity'
              VARNS(2)='northward_sea_water_velocity'
              VARNG(1)='eastward_sea_water_velocity'
              VARNG(2)='northward_sea_water_velocity'
              VARNC(1)='cur=sqrt(U**2+V**2)'
              VARNC(2)='cur=sqrt(U**2+V**2)'
              VARND(1)=''
              VARND(2)=''
!/RTD              ! Override standard direction comment
!/RTD              IF ( FLAGUNR ) THEN
!/RTD                VARND(1) = 'True North'
!/RTD                VARND(2) = 'True North'
!/RTD              ELSE IF ( .NOT. FLAGUNR ) THEN
!/RTD                VARND(1) = 'Rotated Pole Grid North'
!/RTD                VARND(2) = 'Rotated Pole Grid North'
!/RTD              END IF
              VMIN = -990
              VMAX =  990
!
            ELSE IF ( IFI .EQ. 1 .AND. IFJ .EQ. 3 ) THEN
              FSC    = 0.1
              ENAME  = '.wnd'
              UNITS  = 'm s-1'
              !! Note - UA and UD read in from .ww3 file are UX,UY
!/RTD              ! Rotate x,y vector back to standard pole
!/RTD              IF ( FLAGUNR ) CALL W3XYRTN(NSEA, UA(1:NSEA), UD(1:NSEA), AnglD)
              
              IF( SMCGRD ) THEN
!/SMC                 CALL W3S2XY_SMC( UA(1:NSEA), XX )
!/SMC                 CALL W3S2XY_SMC( UD(1:NSEA), XY )
              ELSE ! IF(SMCGRD)
                 CALL W3S2XY ( NSEA, NSEA, NX+1, NY, UA(1:NSEA)        &
                                                        , MAPSF, XX )
                 CALL W3S2XY ( NSEA, NSEA, NX+1, NY, UD(1:NSEA)        &
                                                        , MAPSF, XY )
              ENDIF
              !! Commented out unnecessary statements below for time being
              !! UA,UD are  in north-east convention and X1,X2
              !! are not actually written out below
              !DO ISEA=1, NSEA
              !  UABS   = SQRT(UA(ISEA)**2+UD(ISEA)**2)
              !  IF ( UABS .GT. 1.0 ) THEN
              !    UD(ISEA) = MOD ( 630. -                         &
              !              RADE*ATAN2(UD(ISEA),UA(ISEA)) , 360. )
              !  ELSE
              !    UD(ISEA) = UNDEF
              !    END IF
              !  UA(ISEA) = UABS
              !END DO
              !CALL W3S2XY ( NSEA, NSEA, NX+1, NY, UA(1:NSEA)        &
              !                                          , MAPSF, X1 )
              !CALL W3S2XY ( NSEA, NSEA, NX+1, NY, UD(1:NSEA)        &
              !                                          , MAPSF, X2 )
              NFIELD=2
              VARNM(1)='uwnd'
              VARNM(2)='vwnd'
              VARNL(1)='eastward_wind'
              VARNL(2)='northward_wind'
              VARNS(1)='eastward_wind'
              VARNS(2)='northward_wind'
              VARNG(1)='eastward_wind'
              VARNG(2)='northward_wind'
              VARNC(1)='wind=sqrt(U10**2+V10**2)'
              VARNC(2)='wind=sqrt(U10**2+V10**2)'
              VARND(1)=''
              VARND(2)=''
!/RTD              ! Override standard direction comment
!/RTD              IF ( FLAGUNR ) THEN
!/RTD                VARND(1) = 'True North'
!/RTD                VARND(2) = 'True North'
!/RTD              ELSE IF ( .NOT. FLAGUNR ) THEN
!/RTD                VARND(1) = 'Rotated Pole Grid North'
!/RTD                VARND(2) = 'Rotated Pole Grid North'
!/RTD              END IF
              VMIN = -990
              VMAX =  990
!
            ELSE IF ( IFI .EQ. 1 .AND. IFJ .EQ. 4 ) THEN
              FSC    = 0.1
              ENAME  = '.ast'
              UNITS  = 'K'
              IF( SMCGRD ) THEN
!/SMC                 CALL W3S2XY_SMC(AS(1:NSEA), X1)
              ELSE ! IF(SMCGRD)
                 CALL W3S2XY ( NSEA, NSEA, NX+1, NY, AS(1:NSEA)        &
                                                        , MAPSF, X1 )
              ENDIF
              NFIELD=1
              VARNM(1)='ast'
              VARNL(1)='air sea temperature difference'
              VARNS(1)='air_sea_temperature_difference'
              VARNG(1)='air_sea_temperature_difference'
              VARNC(1)=''
              VARND(1)=''
              VMIN = 0    
              VMAX = 4000
!
            ELSE IF ( IFI .EQ. 1 .AND. IFJ .EQ. 5 ) THEN
              FSC    = 0.01
              UNITS  = 'm'
              ENAME  = '.wlv'
              IF( SMCGRD ) THEN
!/SMC                 CALL W3S2XY_SMC(WLV, X1)
              ELSE ! IF(SMCGRD)
                 CALL W3S2XY ( NSEA, NSEA, NX+1, NY, WLV   , MAPSF, X1 )
              ENDIF
              NFIELD=1
              VARNM(1)='wlv'
              VARNL(1)='sea surface height above sea level'
              VARNS(1)='sea_surface_height_above_sea_level'
              VARNG(1)='sea_surface_height_above_sea_level'
              VARNC(1)=''
              VARND(1)=''
              VMIN = 0 
              VMAX = 10000
!
            ELSE IF ( IFI .EQ. 1 .AND. IFJ .EQ. 6 ) THEN
              FSC    = 0.001
              UNITS  = '1'
              ENAME  = '.ice'
              
              IF( SMCGRD ) THEN
!/SMC                 CALL W3S2XY_SMC(ICE, X1)
              ELSE
                CALL W3S2XY ( NSEA, NSEA, NX+1, NY, ICE   , MAPSF, X1 )
              ENDIF

              NFIELD=1
              VARNM(1)='ice'
              VARNL(1)='sea ice area fraction'
              VARNS(1)='sea_ice_area_fraction'
              VARNG(1)='sea_ice_area_fraction'
              VARNC(1)=''
              VARND(1)=''
              VMIN = 0
              VMAX = 1000
!
            ELSE IF ( IFI .EQ. 1 .AND. IFJ .EQ. 7 ) THEN
              FSC    = 0.0001
              UNITS  = 'km-1'
              ENAME  = '.ibg'

              IF( SMCGRD ) THEN
!/SMC                 CALL W3S2XY_SMC(BERG, X1)
              ELSE
                 CALL W3S2XY ( NSEA, NSEA, NX+1, NY, BERG   , MAPSF, X1 )
              ENDIF
              WHERE ( X1.NE.UNDEF) X1 = X1*0.1
              NFIELD=1
              VARNM(1)='ibg'
              VARNL(1)='icebergs_damping'
              VARNS(1)='icebergs_induced_attenuation_scale_for_waves'
              VARNG(1)='icebergs_damping'
              VARNC(1)=''
              VARND(1)=''
              VMIN = 0
              VMAX = 32000
!
!/BT4 ELSE IF ( IFI .EQ. 1 .AND. IFJ .EQ. 8 ) THEN
!/BT4              FSC    = 0.001
!/BT4              UNITS  = 'Krumbein phi scale'
!/BT4              ENAME  = '.d50'
!/BT4              CALL W3S2XY ( NSEA, NSEA, NX+1, NY, SED_D50   , MAPSF, X1 )
!/BT4              WHERE ( X1.NE.UNDEF) X1 = -LOG(X1/0.001)/LOG2    
!/BT4              NFIELD=1
!/BT4              VARNM(1)='d50'
!/BT4              VARNL(1)='grain_size'
!/BT4              VARNS(1)='sediment_grain_size'
!/BT4              VARNG(1)='sediment_grain_size'
!/BT4              VARNC(1)=''
!/BT4              VARND(1)=''
!/BT4              VMIN = -10000
!/BT4              VMAX = 32000
!
!/IS2 ELSE IF (IFI .EQ. 1 .AND. IFJ .EQ. 9 ) THEN
!/IS2              FSC = 0.001
!/IS2              UNITS = 'm'
!/IS2              ENAME = '.ic1'
!/IS2              CALL W3S2XY (NSEA, NSEA, NX+1, NY, ICEH  , MAPSF, X1 )
!/IS2              NFIELD=1
!/IS2              VARNM(1)='ic1'
!/IS2              VARNL(1)='ice thickness'
!/IS2              VARNS(1)='ice_thickness'
!/IS2              VARNG(1)='ice_thickness'
!/IS2              VARNC(1)=''
!/IS2              VARND(1)=''
!/IS2              VMIN = 0
!/IS2              VMAX = 30000
!
!
!/IS2 ELSE IF (IFI .EQ. 1 .AND. IFJ .EQ. 10 ) THEN
!/IS2              FSC = 0.05
!/IS2              UNITS = 'm'
!/IS2              ENAME = '.ic5'
!/IS2              CALL W3S2XY (NSEA, NSEA, NX+1, NY, ICEF  , MAPSF, X1 )
!/IS2              NFIELD=1
!/IS2              VARNM(1)='ic5'
!/IS2              VARNL(1)='maximum floe diameter'
!/IS2              VARNS(1)='maximum_ice_floe_diameter'
!/IS2              VARNG(1)='maximum_ice_floe_diameter'
!/IS2              VARNC(1)=''
!/IS2              VARND(1)=''
!/IS2              VMIN = 0
!/IS2              VMAX = 30000

            ELSE IF ( IFI .EQ. 2 .AND. IFJ .EQ. 1 ) THEN
!
              NFIELD=1
              IF (NCVARTYPEI.EQ.3) NCVARTYPE=2
              FSC    = 0.002
              UNITS  = 'm'
              ENAME  = '.hs'
              IF( SMCGRD ) THEN
!/SMC                 CALL W3S2XY_SMC( HS, X1 )
              ELSE
                 CALL W3S2XY ( NSEA, NSEA, NX+1, NY, HS    , MAPSF, X1 )
              ENDIF
              NFIELD=1
              VARNM(1)='hs'
              VARNL(1)='significant height of wind and swell waves'
              VARNS(1)='sea_surface_wave_significant_height' 
              VARNG(1)='significant_wave_height'
              VARNC(1)=''
              VARND(1)=''
              VMIN = 0 
              VMAX = 32000

            ELSE IF ( IFI .EQ. 2 .AND. IFJ .EQ. 2 ) THEN
              FSC    = 1.
              UNITS  = 'm'
              ENAME  = '.lm'

              IF( SMCGRD ) THEN
!/SMC                 CALL W3S2XY_SMC(WLM, X1 )
              ELSE
                 CALL W3S2XY ( NSEA, NSEA, NX+1, NY, WLM, MAPSF, X1 )
              ENDIF
              NFIELD=1
              VARNM(1)='lm'
              VARNL(1)='mean wave length'
              VARNS(1)='mean_wave_length' 
              VARNG(1)='mean_wave_length' 
              VARNC(1)=''
              VARND(1)=''
              VMIN = 0 
              VMAX = 3200
!
            ELSE IF ( IFI .EQ. 2 .AND. IFJ .EQ. 3 ) THEN
              FSC    = 0.01
              UNITS  = 's'
              ENAME  = '.t02'

              IF( SMCGRD ) THEN
!/SMC                 CALL W3S2XY_SMC( T02, X1 )
              ELSE
                 CALL W3S2XY ( NSEA, NSEA, NX+1, NY, T02, MAPSF, X1 )
              ENDIF
              NFIELD=1
              VARNM(1)='t02'
              VARNL(1)='mean period T02'
              VARNS(1)='sea_surface_wind_wave_mean_period_from_variance_' // &
                       'spectral_density_second_frequency_moment'
              VARNG(1)='mean_period_t02'
              VARNC(1)=''
              VARND(1)=''
              VMIN = 0
              VMAX = 5000
!
            ELSE IF ( IFI .EQ. 2 .AND. IFJ .EQ. 4 ) THEN
              FSC    = 0.01
              UNITS  = 's'
              ENAME  = '.t0m1'

              IF( SMCGRD ) THEN
!/SMC                CALL W3S2XY_SMC( T0M1, X1 )
              ELSE
                 CALL W3S2XY ( NSEA, NSEA, NX+1, NY, T0M1, MAPSF, X1 )
              ENDIF
              NFIELD=1
              VARNM(1)='t0m1'
              VARNL(1)='mean period T0m1'
              VARNS(1)='sea_surface_wind_wave_mean_period_from_variance' // &
                       '_spectral_density_inverse_frequency_moment'
              VARNG(1)='mean_period_t0m1'
              VARNC(1)=''
              VARND(1)=''
              VMIN = 0 
              VMAX = 5000
!
            ELSE IF ( IFI .EQ. 2 .AND. IFJ .EQ. 5 ) THEN
              FSC    = 0.01
              UNITS  = 's'
              ENAME  = '.t01'
              
              IF( SMCGRD ) THEN
!/SMC                CALL W3S2XY_SMC( T01, X1 )
              ELSE
                 CALL W3S2XY ( NSEA, NSEA, NX+1, NY, T01   , MAPSF, X1 )
              ENDIF
              NFIELD=1
              VARNM(1)='t01'
              VARNL(1)='mean period T01'
              VARNS(1)='sea_surface_wind_wave_mean_period_from_variance' // &
                       '_spectral_density_first_frequency_moment' 
              VARNG(1)='mean_period_t01'
              VARNC(1)=''
              VARND(1)=''
              VMIN = 0
              VMAX = 5000
!
            ELSE IF ( IFI .EQ. 2 .AND. IFJ .EQ. 6 ) THEN
              FSC    = 0.001
              UNITS  = 's-1'
              ENAME  = '.fp'

              IF( SMCGRD ) THEN
!/SMC                CALL W3S2XY_SMC(FP0, X1)
              ELSE
                 CALL W3S2XY ( NSEA, NSEA, NX+1, NY, FP0   , MAPSF, X1 )
              ENDIF
              NFIELD=1
              VARNM(1)='fp'
              VARNL(1)='wave peak frequency'
              VARNS(1)='sea_surface_wave_peak_frequency'
              VARNG(1)='dominant_wave_frequency'
              VARNC(1)=''
              VARND(1)=''
              VMIN = 0 
              VMAX = 10000
!
            ELSE IF ( IFI .EQ. 2 .AND. IFJ .EQ. 7 ) THEN
              FSC    = 0.1
              UNITS  = 'degree'
              ENAME  = '.dir'
!/RTD              ! Rotate direction back to standard pole
!/RTD              IF ( FLAGUNR ) CALL W3THRTN(NSEA, THM, AnglD, .FALSE.)

              IF( SMCGRD ) THEN
!/SMC                CALL W3S2XY_SMC( THM, X1, .TRUE. )
              ELSE
                 DO ISEA=1, NSEA
                   IF ( THM(ISEA) .NE. UNDEF )  THEN
                     THM(ISEA) = MOD ( 630. - RADE*THM(ISEA) , 360. )
                     END IF
                   END DO
                 CALL W3S2XY ( NSEA, NSEA, NX+1, NY, THM, MAPSF, X1 )
              ENDIF
              NFIELD=1
              VARNM(1)='dir'
              VARNL(1)='wave mean direction'
              VARNS(1)='sea_surface_wave_from_direction'
              VARNG(1)='wave_from_direction'
              VARNC(1)=''
              VARND(1)=''
!/RTD              ! Override standard direction comment
!/RTD              IF ( FLAGUNR ) THEN
!/RTD                VARND(1) = 'True North'
!/RTD              ELSE IF ( .NOT. FLAGUNR ) THEN
!/RTD                VARND(1) = 'Rotated Pole Grid North'
!/RTD              END IF
              VMIN = 0
              VMAX = 3600
!
            ELSE IF ( IFI .EQ. 2 .AND. IFJ .EQ. 8 ) THEN
              FSC    = 0.1
              UNITS  = 'degree'
              ENAME  = '.spr'

              IF( SMCGRD ) THEN
!/SMC                CALL W3S2XY_SMC( THS, X1 )
              ELSE
                 CALL W3S2XY ( NSEA, NSEA, NX+1, NY, THS   , MAPSF, X1 )
              ENDIF
              NFIELD=1
              VARNM(1)='spr'
              VARNL(1)='directional spread'
              VARNS(1)='sea_surface_wave_directional_spread'
              VARNG(1)='directional_spread'
              VARNC(1)=''
              VARND(1)=''
              VMIN = 0
              VMAX = 900
!
            ELSE IF ( IFI .EQ. 2 .AND. IFJ .EQ. 9 ) THEN
              FSC    = 1.
              UNITS  = 'degree'
              ENAME  = '.dp'
!/RTD              ! Rotate direction back to standard pole
!/RTD              IF ( FLAGUNR ) CALL W3THRTN(NSEA, THP0, AnglD, .FALSE.)

              IF( SMCGRD ) THEN
!/SMC                CALL W3S2XY_SMC( THP0, X1, .TRUE. )
              ELSE
                 DO ISEA=1, NSEA
                   IF ( THP0(ISEA) .NE. UNDEF ) THEN
                     THP0(ISEA) = MOD ( 630-RADE*THP0(ISEA) , 360. )
                     END IF
                   END DO
                 CALL W3S2XY ( NSEA, NSEA, NX+1, NY, THP0  , MAPSF, X1 )
              ENDIF
              NFIELD=1
              VARNM(1)='dp'
              VARNL(1)='peak direction'
              VARNS(1)='sea_surface_wave_peak_direction'
              VARNG(1)='dominant_wave_direction'
              VARNC(1)=''
              VARND(1)=''
!/RTD              ! Override standard direction comment
!/RTD              IF ( FLAGUNR ) THEN
!/RTD                VARND(1) = 'True North'
!/RTD              ELSE IF ( .NOT. FLAGUNR ) THEN
!/RTD                VARND(1) = 'Rotated Pole Grid North'
!/RTD              END IF
              VMIN = 0 
              VMAX = 360
!
            ELSE IF ( IFI .EQ. 2 .AND. IFJ .EQ. 10 ) THEN
              FSC    = 0.0002
              UNITS  = 'm'
              ENAME  = '.hig'

              IF( SMCGRD ) THEN
!/SMC                CALL W3S2XY_SMC( HSIG, X1 )
              ELSE
                 CALL W3S2XY ( NSEA, NSEA, NX+1, NY, HSIG, MAPSF, X1 )
              ENDIF
              NFIELD=1
              VARNM(1)='hig'
              VARNL(1)='infragravity_wave_height'
              VARNS(1)='sea_surface_wave_infragravity_significant_height' 
              VARNG(1)='infragravity_significant_wave_height' 
              VARNC(1)=''
              VARND(1)=''
              VMIN = 0 
              VMAX = 5000
!
            ELSE IF ( IFI .EQ. 2 .AND. IFJ .EQ. 11 ) THEN
              FSC    = 0.002
              UNITS  = 'm'
              ENAME  = '.mxe'
              IF( SMCGRD ) THEN
!/SMC                CALL W3S2XY_SMC( STMAXE, X1 )
              ELSE
                 CALL W3S2XY ( NSEA, NSEA, NX+1, NY, STMAXE, MAPSF, X1 )
              ENDIF
              NFIELD=1
              VARNM(1)='stmaxe'
              VARNL(1)='expected maximum sea surface elevation (nonlinear,2nd order)'
              VARNS(1)='expected maximum sea surface elevation (nonlinear,2nd order)'
              VARNG(1)='expected maximum sea surface elevation (nonlinear,2nd order)'
              VARNC(1)=''
              VARND(1)=''
              VMIN = 0
              VMAX = 32000
!
            ELSE IF ( IFI .EQ. 2 .AND. IFJ .EQ. 12 ) THEN
              FSC    = 0.002
              UNITS  = 'm'
              ENAME  = '.mxes'
              IF( SMCGRD ) THEN
!/SMC                CALL W3S2XY_SMC( STMAXD, X1 )
              ELSE
                 CALL W3S2XY ( NSEA, NSEA, NX+1, NY, STMAXD, MAPSF, X1 )
              ENDIF
              NFIELD=1
              VARNM(1)='stmaxd'
              VARNL(1)='standard deviation of maximum sea surface elevation (nonlinear,2nd order)'
              VARNS(1)='std of expected maximum sea surface elevation (nonlinear,2nd order)'
              VARNG(1)='standard deviation of maximum sea surface elevation (nonlinear,2nd order)'
              VARNC(1)=''
              VARND(1)=''
              VMIN = 0
              VMAX = 32000
!
            ELSE IF ( IFI .EQ. 2 .AND. IFJ .EQ. 13 ) THEN
              FSC    = 0.002
              UNITS  = 'm'
              ENAME  = '.mxh'
              IF( SMCGRD ) THEN
!/SMC                CALL W3S2XY_SMC( HMAXE, X1 )
              ELSE
                 CALL W3S2XY ( NSEA, NSEA, NX+1, NY, HMAXE, MAPSF, X1 )
              ENDIF
              NFIELD=1
              VARNM(1)='hmaxe'
              VARNL(1)='expected maximum wave height (linear, 1st order)'
              VARNS(1)='expected maximum wave height (linear, 1st order)'
              VARNG(1)='expected maximum wave height (linear, 1st order)'
              VARNC(1)=''
              VARND(1)=''
              VMIN = 0
              VMAX = 32000
!
            ELSE IF ( IFI .EQ. 2 .AND. IFJ .EQ. 14 ) THEN
              FSC    = 0.002
              UNITS  = 'm'
              ENAME  = '.mxhc'
              IF( SMCGRD ) THEN
!/SMC                CALL W3S2XY_SMC( HCMAXE, X1 )
              ELSE
                 CALL W3S2XY ( NSEA, NSEA, NX+1, NY, HCMAXE, MAPSF, X1 )
              ENDIF
              NFIELD=1
              VARNM(1)='hcmaxe'
              VARNL(1)='expected maximum wave height from crest (linear, 1st order)'
              VARNS(1)='expected maximum wave height from crest (linear, 1st order)'
              VARNG(1)='expected maximum wave height from crest (linear, 1st order)'
              VARNC(1)=''
              VARND(1)=''
              VMIN = 0
              VMAX = 32000
!
            ELSE IF ( IFI .EQ. 2 .AND. IFJ .EQ. 15 ) THEN
              FSC    = 0.002
              UNITS  = 'm'
              ENAME  = '.sdmh'
              IF( SMCGRD ) THEN
!/SMC                CALL W3S2XY_SMC( HMAXD, X1 )
              ELSE
                 CALL W3S2XY ( NSEA, NSEA, NX+1, NY, HMAXD, MAPSF, X1 )
              ENDIF
              NFIELD=1
              VARNM(1)='hmaxd'
              VARNL(1)='STD of maximum wave height (linear, 1st order)'
              VARNS(1)='STD of maximum wave height (linear, 1st order)'
              VARNG(1)='STD of maximum wave height (linear, 1st order)'
              VARNC(1)=''
              VARND(1)=''
              VMIN = 0
              VMAX = 32000
!
            ELSE IF ( IFI .EQ. 2 .AND. IFJ .EQ. 16 ) THEN
              FSC    = 0.002
              UNITS  = 'm'
              ENAME  = '.sdmhc'
              IF( SMCGRD ) THEN
!/SMC                CALL W3S2XY_SMC( HCMAXD, X1 )
              ELSE
                 CALL W3S2XY ( NSEA, NSEA, NX+1, NY, HCMAXD, MAPSF, X1 )
              ENDIF
              NFIELD=1
              VARNM(1)='hcmaxd'
              VARNL(1)='STD of maximum wave height from crest (linear, 1st order)'
              VARNS(1)='STD of maximum wave height from crest (linear, 1st order)'
              VARNG(1)='STD of maximum wave height from crest (linear, 1st order)'
              VARNC(1)=''
              VARND(1)=''
              VMIN = 0
              VMAX = 32000
!
            ELSE IF ( IFI .EQ. 3 .AND. IFJ .EQ. 1 ) THEN
              ! Information for spectral
              FLFRQ  = .TRUE.
              NFIELD = 1
              VARNM(1)='ef'
              VARNL(1)='wave_elevation_spectrum'
              VARNG(1)=VARNS(1)
              VARNC(1)=''
              VARND(1)=''
              IF (NCVARTYPE.LE.3) THEN 
                UNITS  = 'log10(m2 s+1E-12)'
                VARNS(1)='base_ten_logarithm_of_power_spectral_density_of_surface_elevation'
                FSC     = 0.0004
              ELSE
                UNITS  = 'm2 s'
                VARNS(1)='power_spectral_density_of_surface_elevation'
                FSC     = 1.
                END IF
              ENAME  = '.ef'
              VARNG(1)=VARNS(1)
              VARNG(1)=VARNS(1)
              I1F=E3DF(2,1)
              I2F=E3DF(3,1)
              DO IK=I1F,I2F
                IF( SMCGRD ) THEN
!/SMC                  CALL W3S2XY_SMC( EF(:,IK), XX )
                ELSE
                   CALL W3S2XY ( NSEA, NSEA, NX+1,NY,EF(:,IK),MAPSF, XX )
                ENDIF
                IF (NCVARTYPE.EQ.2) WHERE ( XX.GE.0.) XX = ALOG10(XX+1E-12)
                XK(:,:,IK)=XX
                END DO
              VMIN = -30000
              VMAX = 32000
!
            ELSE IF ( IFI .EQ. 3 .AND. IFJ .EQ. 2 ) THEN
              ! Information for spectral
              FLFRQ  = .TRUE.
              NFIELD = 1
              FSC     = 0.1
              VARNM(1)='th1m'
              VARNL(1)='mean wave direction frequency spectrum'
              VARNS(1)='sea_surface_wave_from_direction_frequency_spectrum'
              VARNG(1)=VARNS(1)
              VARNC(1)=''
              VARND(1)=''
!/RTD              ! Override standard direction comment
!/RTD              IF ( FLAGUNR ) THEN
!/RTD                VARND(1) = 'True North'
!/RTD              ELSE IF ( .NOT. FLAGUNR ) THEN
!/RTD                VARND(1) = 'Rotated Pole Grid North'
!/RTD              END IF
              UNITS  = 'degree'
              ENAME  = '.th1m'
              I1F=E3DF(2,2)
              I2F=E3DF(3,2)
              DO IK=I1F,I2F
!/RTD                ! Rotate direction back to standard pole
!/RTD                IF ( FLAGUNR ) CALL W3THRTN(NSEA, TH1M(:,IK), AnglD, .FALSE.)
                IF( SMCGRD ) THEN
!/SMC                   CALL W3S2XY_SMC( TH1M(:,IK), XX )
                ELSE
                   CALL W3S2XY ( NSEA, NSEA, NX+1,NY,TH1M(:,IK),MAPSF, XX )
                ENDIF
                XK(:,:,IK)=XX
                END DO
              VMIN = 0 
              VMAX = 3600
!
            ELSE IF ( IFI .EQ. 3 .AND. IFJ .EQ. 3 ) THEN
              ! Information for spectral
              FLFRQ  = .TRUE.
              NFIELD = 1
              FSC     = 0.01
              VARNM(1)='sth1m'
              VARNL(1)='spreading frequency spectrum'
              VARNS(1)='sea_surface_wave_spreading_spectrum'
              VARNG(1)=VARNS(1)
              VARNC(1)=''
              VARND(1)=''
              UNITS  = 'degree'
              ENAME  = '.sth1m'
              I1F=E3DF(2,3)
              I2F=E3DF(3,3)
              DO IK=I1F,I2F
                IF( SMCGRD ) THEN
!/SMC                   CALL  W3S2XY_SMC( STH1M(:,IK), XX )
                ELSE
                   CALL W3S2XY ( NSEA, NSEA, NX+1,NY,STH1M(:,IK),MAPSF, XX )
                ENDIF
                XK(:,:,IK)=XX
                END DO
              VMIN = 0 
              VMAX = 9000
!
            ELSE IF ( IFI .EQ. 3 .AND. IFJ .EQ. 4 ) THEN
              ! Information for spectral
              FLFRQ  = .TRUE.
              NFIELD = 1
              FSC     = 0.1
              VARNM(1)='th2m'
              VARNL(1)='second mean wave direction frequency spectrum'
              VARNS(1)='sea_surface_wave_from_direction_frequency_spectrum_from_second_moments'
              VARNG(1)=VARNS(1)
              VARNC(1)=''
              VARND(1)=''
!/RTD              ! Override standard direction comment
!/RTD              IF ( FLAGUNR ) THEN
!/RTD                VARND(1) = 'True North'
!/RTD              ELSE IF ( .NOT. FLAGUNR ) THEN
!/RTD                VARND(1) = 'Rotated Pole Grid North'
!/RTD              END IF
              UNITS  = 'degree'
              ENAME  = '.th2m'
              I1F=E3DF(2,4)
              I2F=E3DF(3,4)
              DO IK=I1F,I2F
!/RTD                ! Rotate direction back to standard pole
!/RTD                IF ( FLAGUNR ) CALL W3THRTN(NSEA, TH2M(:,IK), AnglD, .FALSE.)
                IF( SMCGRD ) THEN
!/SMC                  CALL W3S2XY_SMC( TH2M(:,IK), XX )
                ELSE
                   CALL W3S2XY ( NSEA, NSEA, NX+1,NY,TH2M(:,IK),MAPSF, XX )
                ENDIF
                XK(:,:,IK)=XX
                END DO
              VMIN = 0 
              VMAX = 3600
!
            ELSE IF ( IFI .EQ. 3 .AND. IFJ .EQ. 5 ) THEN
              ! Information for spectral
              FLFRQ  = .TRUE.
              NFIELD = 1
              FSC     = 0.01
              VARNM(1)='sth2m'
              VARNL(1)='second spreading frequency spectrum'
              VARNS(1)='sea_surface_wave_spreading_spectrum_from_second_moments'
              VARNG(1)=VARNS(1)
              VARNC(1)=''
              VARND(1)=''
              UNITS  = 'degree'
              ENAME  = '.sth2m'
              I1F=E3DF(2,5)
              I2F=E3DF(3,5)
              DO IK=I1F,I2F
                IF( SMCGRD ) THEN
!/SMC                  CALL W3S2XY_SMC( STH2M(:,IK), XX )
                ELSE
                   CALL W3S2XY ( NSEA, NSEA, NX+1,NY,STH2M(:,IK),MAPSF, XX )
                ENDIF
                XK(:,:,IK)=XX
                END DO
              VMIN = 0 
              VMAX = 9000
!
            ELSE IF ( IFI .EQ. 3 .AND. IFJ .EQ. 6 ) THEN
              ! Information for spectral
              FLFRQ  = .TRUE.
              FSC    = 0.001
              UNITS  = 'm-1'
              ENAME  = '.wn'
              I1F=1
              I2F=NK
              DO IK=1,NK 
                IF( SMCGRD ) THEN
!/SMC                  CALL W3S2XY_SMC( WN(IK,:), XX )
                ELSE
                   CALL W3S2XY ( NSEA, NSEA, NX+1, NY, WN(IK,:), MAPSF, XX )
                ENDIF
                XK(:,:,IK)=XX
                END DO
              NFIELD=1
              VARNM(1)='wn'
              VARNL(1)='wave numbers'
              VARNS(1)='wave_numbers'
              VARNG(1)='wave_numbers'
              VARNC(1)=''
              VARND(1)=''
              VMIN = 0 
              VMAX = 32000
!
            ELSE IF ( IFI .EQ. 4 .AND. IFJ .EQ. 1 ) THEN
              FSC    = 0.002
              UNITS  = 'm'
              WRITE(ENAME,'(A4,I1)') '.phs',IPART

              IF( SMCGRD ) THEN
!/SMC                 CALL W3S2XY_SMC( PHS(:,IPART), X1 )
              ELSE
                CALL W3S2XY ( NSEA, NSEA, NX+1, NY, PHS(:,IPART), MAPSF, X1 )
              ENDIF

              NFIELD=1
              WRITE(VARNM(1),'(A3,I1)') 'phs',IPART 
              WRITE(VARNL(1),'(A,I1)') 'wave significant height partition ',IPART 
              WRITE(VARNS(1),'(A,I1)') 'sea_surface_wave_significant_height_partition_',IPART 
              WRITE(VARNG(1),'(A,I1)') 'significant_wave_height_partition_',IPART 
              VARNC(1)=PARTCOM
              VARND(1)=''
              VMIN = 0 
              VMAX = 32000
!
            ELSE IF ( IFI .EQ. 4 .AND. IFJ .EQ. 2 ) THEN
              FSC    = 0.01
              UNITS  = 's'
              WRITE(ENAME,'(A4,I1)') '.ptp',IPART

              IF( SMCGRD ) THEN
!/SMC                 CALL W3S2XY_SMC( PTP(:,IPART), X1 )
              ELSE
                CALL W3S2XY ( NSEA, NSEA, NX+1, NY, PTP(:,IPART), MAPSF, X1 )
              ENDIF

              NFIELD=1
              WRITE(VARNM(1),'(A3,I1)') 'ptp',IPART 
              WRITE(VARNL(1),'(A,I1)') 'peak period partition ',IPART 
              WRITE(VARNS(1),'(A,I1)') 'sea_surface_wave_period_at_' // &
                                       'variance_spectral_density_maximum_partition_',IPART
              WRITE(VARNG(1),'(A,I1)') 'dominant_wave_period_partition_',IPART
              VARNC(1)=PARTCOM
              VARND(1)=''
              VMIN = 0 
              VMAX = 10000
!
            ELSE IF ( IFI .EQ. 4 .AND. IFJ .EQ. 3 ) THEN
              FSC    = 1.
              UNITS  = 'm'
              WRITE(ENAME,'(A4,I1)') '.plp',IPART
              IF( SMCGRD ) THEN
!/SMC                CALL W3S2XY_SMC( PLP(:,IPART), X1 )
              ELSE
                CALL W3S2XY ( NSEA, NSEA, NX+1, NY, PLP(:,IPART), MAPSF, X1 )
              ENDIF

              NFIELD=1
              WRITE(VARNM(1),'(A3,I1)') 'plp',IPART 
              WRITE(VARNL(1),'(A,I1)') 'peak wave length partition ',IPART 
              WRITE(VARNS(1),'(A,I1)') 'peak_wave_length_partition_',IPART
              WRITE(VARNG(1),'(A,I1)') 'peak_wave_length_partition_',IPART
              VARNC(1)=PARTCOM
              VARND(1)=''
              VMIN = 0 
              VMAX = 10000
!
            ELSE IF ( IFI .EQ. 4 .AND. IFJ .EQ. 4 ) THEN
              FSC    = 0.1
              UNITS  = 'degree'
              WRITE(ENAME,'(A5,I1)') '.pdir',IPART
!/RTD                ! Rotate direction back to standard pole
!/RTD                IF ( FLAGUNR ) CALL W3THRTN(NSEA, PDIR(:,IPART), AnglD, .FALSE.)
              IF( SMCGRD ) THEN
!/SMC                CALL W3S2XY_SMC( PDIR(:,IPART), X1, .TRUE. )
              ELSE
                DO ISEA=1, NSEA
                  IF ( PDIR(ISEA,IPART) .NE. UNDEF ) THEN
                     PDIR(ISEA,IPART) = MOD ( 630-RADE*PDIR(ISEA,IPART) , 360. )
                  END IF
                END DO
                CALL W3S2XY ( NSEA, NSEA, NX+1, NY, PDIR(:,IPART), MAPSF, X1 )
              ENDIF
              NFIELD=1
              WRITE(VARNM(1),'(A4,I1)') 'pdir',IPART 
              WRITE(VARNL(1),'(A,I1)') 'wave mean direction partition ',IPART 
              WRITE(VARNS(1),'(A,I1)') 'sea_surface_wave_from_direction_partition_',IPART
              WRITE(VARNG(1),'(A,I1)') 'wave_from_direction_partition_',IPART
              VARNC(1)=PARTCOM
              VARND(1)=''
!/RTD              ! Override standard direction comment
!/RTD              IF ( FLAGUNR ) THEN
!/RTD                VARND(1) = 'True North'
!/RTD              ELSE IF ( .NOT. FLAGUNR ) THEN
!/RTD                VARND(1) = 'Rotated Pole Grid North'
!/RTD              END IF
              VMIN = 0
              VMAX = 3600
!
            ELSE IF ( IFI .EQ. 4 .AND. IFJ .EQ. 5 ) THEN
              FSC    = 0.1
              UNITS  = 'degree'
              WRITE(ENAME,'(A5,I1)') '.pspr',IPART
              
              IF( SMCGRD ) THEN
!/SMC                CALL W3S2XY_SMC( PSI(:,IPART), X1 )
              ELSE
                CALL W3S2XY ( NSEA, NSEA, NX+1, NY, PSI(:,IPART), MAPSF, X1 )
              ENDIF

              NFIELD=1
              WRITE(VARNM(1),'(A4,I1)') 'pspr',IPART 
              WRITE(VARNL(1),'(A,I1)') 'directional spread partition ',IPART 
              WRITE(VARNS(1),'(A,I1)') 'sea_surface_wave_directional_spread_partition_',IPART
              WRITE(VARNG(1),'(A,I1)') 'directional_spread_partition_',IPART
              VARNC(1)=PARTCOM
              VARND(1)=''
              VMIN = 0 
              VMAX = 900
!
            ELSE IF ( IFI .EQ. 4 .AND. IFJ .EQ. 6 ) THEN
              FSC    = 0.001
              UNITS  = '1'
              WRITE(ENAME,'(A4,I1)') '.pws',IPART

              IF( SMCGRD ) THEN
!/SMC                CALL W3S2XY_SMC( PWS(:,IPART), X1 )
              ELSE
                CALL W3S2XY ( NSEA, NSEA, NX+1, NY, PWS(:,IPART), MAPSF, X1 )
              ENDIF

              NFIELD=1
              WRITE(VARNM(1),'(A3,I1)') 'pws',IPART
              WRITE(VARNL(1),'(A,I1)') 'wind sea fraction in partition ',IPART 
              WRITE(VARNS(1),'(A,I1)') 'wind_sea_fraction_in_partition_',IPART 
              WRITE(VARNG(1),'(A,I1)') 'wind_sea_fraction_in_partition_',IPART
              VARNC(1)=PARTCOM
              VARND(1)=''
              VMIN = 0 
              VMAX = 1000
!
            ELSE IF ( IFI .EQ. 4 .AND. IFJ .EQ. 7 ) THEN
              FSC    = 0.1
              UNITS  = 'degree'
              WRITE(ENAME,'(A4,I1)') '.pdp',IPART
!/RTD                ! Rotate direction back to standard pole
!/RTD                IF ( FLAGUNR ) CALL W3THRTN(NSEA, PTHP0(:,IPART), AnglD, .FALSE.)
              IF( SMCGRD ) THEN
!/SMC                CALL W3S2XY_SMC( PTHP0(:,IPART), X1, .TRUE. )
              ELSE
                DO ISEA=1, NSEA
                  IF ( PTHP0(ISEA,IPART) .NE. UNDEF ) THEN
                    PTHP0(ISEA,IPART) = MOD ( 630-RADE*PTHP0(ISEA,IPART) , 360. )
                    END IF
                  END DO
                CALL W3S2XY ( NSEA, NSEA, NX+1, NY, PTHP0(:,IPART), MAPSF, X1 )
              END IF
              NFIELD=1
              WRITE(VARNM(1),'(A3,I1)') 'pdp',IPART
              WRITE(VARNL(1),'(A,I1)') &
                 'peak direction partition ',IPART
              WRITE(VARNS(1),'(A,I1)') &
                 'sea_surface_wave_peak_from_direction_partition_',IPART
              WRITE(VARNG(1),'(A,I1)') &
                  'dominant_wave_from_direction_partition_',IPART
              VARNC(1)=PARTCOM
              VARND(1)=''
!/RTD              ! Override standard direction comment
!/RTD              IF ( FLAGUNR ) THEN
!/RTD                VARND(1) = 'True North'
!/RTD              ELSE IF ( .NOT. FLAGUNR ) THEN
!/RTD                VARND(1) = 'Rotated Pole Grid North'
!/RTD              END IF
              VMIN = 0
              VMAX = 3600
!
            ELSE IF ( IFI .EQ. 4 .AND. IFJ .EQ. 8 ) THEN
              FSC    = 0.01
              UNITS  = '1'
              WRITE(ENAME,'(A4,I1)') '.pqp',IPART
              IF( SMCGRD ) THEN
!/SMC                 CALL W3S2XY_SMC( PQP(:,IPART), X1 )
              ELSE
                CALL W3S2XY ( NSEA, NSEA, NX+1, NY, PQP(:,IPART), MAPSF, X1 )
              ENDIF
              NFIELD=1
              WRITE(VARNM(1),'(A3,I1)') 'pqp',IPART
              WRITE(VARNL(1),'(A,I1)') 'peakedness partition ',IPART
              WRITE(VARNS(1),'(A,I1)') &
                  'sea_surface_wave_peakedness_partition_',IPART
              WRITE(VARNG(1),'(A,I1)') &
                  'wave_peakedness_partition_',IPART
              VARNC(1)=PARTCOM
              VARND(1)=''
              VMIN = 0
              VMAX = 32000
!
            ELSE IF ( IFI .EQ. 4 .AND. IFJ .EQ. 9 ) THEN
              FSC    = 0.01
              UNITS  = '1'
              WRITE(ENAME,'(A4,I1)') '.ppe',IPART
              IF( SMCGRD ) THEN
!/SMC                 CALL W3S2XY_SMC( PPE(:,IPART), X1 )
              ELSE
                CALL W3S2XY ( NSEA, NSEA, NX+1, NY, PPE(:,IPART), MAPSF, X1 )
              ENDIF
              NFIELD=1
              WRITE(VARNM(1),'(A3,I1)') 'ppe',IPART
              WRITE(VARNL(1),'(A,I1)') &
                  'peak enhancement factor partition ',IPART
              WRITE(VARNS(1),'(A,I1)') &
                  'wave_peak_enhancement_factor_partition_',IPART
              WRITE(VARNG(1),'(A,I1)') &
                  'wave_peak_enhancement_factor_partition_',IPART
              VARNC(1)='JONSWAP peak enhancement factor; ' // PARTCOM
              VARND(1)=''
              VMIN = 0
              VMAX = 32000
!
            ELSE IF ( IFI .EQ. 4 .AND. IFJ .EQ. 10 ) THEN
              FSC    = 0.0001
              UNITS  = 's-1'
              WRITE(ENAME,'(A4,I1)') '.pgw',IPART
              IF( SMCGRD ) THEN
!/SMC                 CALL W3S2XY_SMC( PGW(:,IPART), X1 )
              ELSE
                CALL W3S2XY ( NSEA, NSEA, NX+1, NY, PGW(:,IPART), MAPSF, X1 )
              ENDIF
              NFIELD=1
              WRITE(VARNM(1),'(A3,I1)') 'pgw',IPART
              WRITE(VARNL(1),'(A,I1)') &
                  'frequency width partition ',IPART
              WRITE(VARNS(1),'(A,I1)') &
                  'Gaussian_frequency_spread_partition_',IPART
              WRITE(VARNG(1),'(A,I1)') &
                  'Gaussian_frequency_spread_partition_',IPART
              VARNC(1)='Gaussian least-square fit to ' // &
                       'omni-directional spectral partition; ' // PARTCOM
              VARND(1)=''
              VMIN = 0
              VMAX = 32000
!
            ELSE IF ( IFI .EQ. 4 .AND. IFJ .EQ. 11 ) THEN
              FSC    = 0.0001
              UNITS  = '1'
              WRITE(ENAME,'(A4,I1)') '.psw',IPART
              IF( SMCGRD ) THEN
!/SMC                 CALL W3S2XY_SMC( PSW(:,IPART), X1 )
              ELSE
                CALL W3S2XY ( NSEA, NSEA, NX+1, NY, PSW(:,IPART), MAPSF, X1 )
              ENDIF
              NFIELD=1
              WRITE(VARNM(1),'(A3,I1)') 'psw',IPART
              WRITE(VARNL(1),'(A,I1)') 'spectral width partition ',IPART
              WRITE(VARNS(1),'(A,I1)') &
                  'sea_surface_wave_spectral_width_partition_',IPART
              WRITE(VARNG(1),'(A,I1)') &
                  'wave_spectral_width_partition_',IPART
              VARNC(1)=PARTCOM
              VARND(1)=''
              VMIN = 0
              VMAX = 32000
!
            ELSE IF ( IFI .EQ. 4 .AND. IFJ .EQ. 12 ) THEN
              FSC    = 0.01
              UNITS  = 's'
              WRITE(ENAME,'(A7,I1)') '.ptm10_',IPART
              IF( SMCGRD ) THEN
!/SMC                 CALL W3S2XY_SMC( PTM1(:,IPART), X1 )
              ELSE
                CALL W3S2XY ( NSEA, NSEA, NX+1, NY, PTM1(:,IPART), MAPSF, X1 )
              ENDIF
              NFIELD=1
              WRITE(VARNM(1),'(A6,I1)') 'ptm10_',IPART
              WRITE(VARNL(1),'(A,I1)') 'mean period Tm10 partition ',IPART
              WRITE(VARNS(1),'(A,I1)') &
                  'sea_surface_wave_mean_period_tm10_partition_',IPART
              WRITE(VARNG(1),'(A,I1)') &
                  'mean_wave_period_Tm10_partition_',IPART
              VARNC(1)=PARTCOM
              VARND(1)=''
              VMIN = 0
              VMAX = 10000
!
            ELSE IF ( IFI .EQ. 4 .AND. IFJ .EQ. 13 ) THEN
              FSC    = 0.01
              UNITS  = 's'
              WRITE(ENAME,'(A6,I1)') '.pt01_',IPART
              IF( SMCGRD ) THEN
!/SMC                 CALL W3S2XY_SMC( PT1(:,IPART), X1 )
              ELSE
                CALL W3S2XY ( NSEA, NSEA, NX+1, NY, PT1(:,IPART), MAPSF, X1 )
              ENDIF
              NFIELD=1
              WRITE(VARNM(1),'(A5,I1)') 'pt01_',IPART
              WRITE(VARNL(1),'(A,I1)') 'mean period T01 partition ',IPART
              WRITE(VARNS(1),'(A,I1)') &
                  'sea_surface_wave_mean_period_t01_partition_',IPART
              WRITE(VARNG(1),'(A,I1)') &
                  'mean_wave_period_T01_partition_',IPART
              VARNC(1)=PARTCOM
              VARND(1)=''
              VMIN = 0
              VMAX = 10000
!
            ELSE IF ( IFI .EQ. 4 .AND. IFJ .EQ. 14 ) THEN
              FSC    = 0.01
              UNITS  = 's'
              WRITE(ENAME,'(A6,I1)') '.pt02_',IPART
              IF( SMCGRD ) THEN
!/SMC                 CALL W3S2XY_SMC( PT2(:,IPART), X1 )
              ELSE
                CALL W3S2XY ( NSEA, NSEA, NX+1, NY, PT2(:,IPART), MAPSF, X1 )
              ENDIF
              NFIELD=1
              WRITE(VARNM(1),'(A5,I1)') 'pt02_',IPART
              WRITE(VARNL(1),'(A,I1)') 'mean period T02 partition ',IPART
              WRITE(VARNS(1),'(A,I1)') &
                  'sea_surface_wave_mean_period_t02_partition_',IPART
              WRITE(VARNG(1),'(A,I1)') &
                  'mean_wave_period_T02_partition_',IPART
              VARNC(1)=PARTCOM
              VARND(1)=''
              VMIN = 0
              VMAX = 10000
!
            ELSE IF ( IFI .EQ. 4 .AND. IFJ .EQ. 15 ) THEN
              FSC    = 0.02
              UNITS  = 'm2 s rad-1'
              WRITE(ENAME,'(A4,I1)') '.pep',IPART
              IF( SMCGRD ) THEN
!/SMC                 CALL W3S2XY_SMC( PEP(:,IPART), X1 )
              ELSE
                CALL W3S2XY ( NSEA, NSEA, NX+1, NY, PEP(:,IPART), MAPSF, X1 )
              ENDIF
              NFIELD=1
              WRITE(VARNM(1),'(A3,I1)') 'pep',IPART
              WRITE(VARNL(1),'(A,I1)') 'energy at peak frequency partition ',IPART
              WRITE(VARNS(1),'(A,I1)') &
                  'sea_surface_wave_energy_at_variance_spectral_density_maximum_partition_',IPART
              WRITE(VARNG(1),'(A,I1)') &
                  'wave_energy_at_variance_spectral_density_maximum_partition_',IPART
              VARNC(1)=PARTCOM
              VARND(1)=''
              VMIN = 0
              VMAX = 10000
!
            ELSE IF ( IFI .EQ. 4 .AND. IFJ .EQ. 16 ) THEN
              FSC    = 0.001
              UNITS  = '1'
              ENAME  = '.tws'

              IF( SMCGRD ) THEN
!/SMC                CALL W3S2XY_SMC( PWST(:), X1 )
              ELSE
                CALL W3S2XY ( NSEA, NSEA, NX+1, NY, PWST(:), MAPSF, X1 )
              ENDIF

              NFIELD=1
              VARNM(1)='tws'
              VARNL(1)='wind sea fraction'
              VARNS(1)='wind_sea_fraction'
              VARNG(1)='wind_sea_fraction'
              VARNC(1)=PARTCOM
              VARND(1)=''
              VMIN = 0 
              VMAX = 1000
!
            ELSE IF ( IFI .EQ. 4 .AND. IFJ .EQ. 17 ) THEN
              FSC    = 1.
[...]
!/SMC                      END DO
!/SMC                      IF(SMCTYPE .EQ. 1) THEN
!/SMC                        IRET=NF90_PUT_VAR(NCID,VARID(IVAR1+1),               &
!/SMC                            MX1R(IX1:IXN,IY1:IYN),(/START(1), START(3)/),(/COUNT(1), COUNT(3)/))
!/SMC                        call CHECK_ERR(IRET)
!/SMC                      ELSE
!/SMC                        IRET=NF90_PUT_VAR(NCID,VARID(IVAR1+1),               &
!/SMC                            MX1R(IX1:IXN,IY1:IYN),(/START(1:3)/),(/COUNT(1:3)/))
!/SMC                        call CHECK_ERR(IRET)
!/SMC                      ENDIF
                    ELSE ! IF SMCGRD
                      DO IX=IX1, IXN
                        DO IY=IY1, IYN
                          IF ( MAPSTA(IY,IX) .LE. 0 .OR.XK(IX,IY,IK) .EQ. UNDEF ) THEN
                            MX1R(IX,IY) = MFILLR
                          ELSE
                            MX1R(IX,IY) = XK(IX,IY,IK)
                          END IF
                        END DO
                      END DO
                      IRET=NF90_PUT_VAR(NCID,VARID(IVAR1+1),               &
                          MX1R(IX1:IXN,IY1:IYN),(/START(1:4)/),(/COUNT(1:4)/))
                      CALL CHECK_ERR(IRET)
                    END IF ! SMCGRD
                  END DO
                END IF   ! EXTRADIM
              END IF   ! NFIELD
            END IF   ! NCVARTYPE

            ! updates the variable index
            IVAR1=IVAR1+NFIELD


            ! Loops over IPART for partition variables
            ! ChrisBunney: Don't loop IPART for last two entries in section 4
            ! (16: total wind sea fraction, 17: number of parts) as these fields
            ! do not have partitions.
            IF (IFI .EQ. 4 .AND. IFJ .LE. NOGE(IFI) - 2) THEN
560           CONTINUE
              IF (INDEXIPART.LT.NBIPART) THEN
                INDEXIPART=INDEXIPART+1
                IF (TABIPART(INDEXIPART).EQ.-1) GOTO 560      
                IPART=TABIPART(INDEXIPART)   
                GOTO 555
              END IF
            ELSE
              INDEXIPART=1
            END IF
!      
          END IF  ! FLG2D(IFI,IFJ)
        END DO  ! IFI=1, NOGRP
      END DO  ! IFJ=1, NGRPP
!
! Clean up
      DEALLOCATE(X1, X2, XX, XY, XK, XXK, XYK)
      DEALLOCATE(MX1, MXX, MYY, MXY, MAPOUT)
      DEALLOCATE(MX1R, MXXR, MYYR, MXYR)
      IF (ALLOCATED(LON)) DEALLOCATE(LON, LAT)
      IF (ALLOCATED(LON2D)) DEALLOCATE(LON2D, LAT2D)
!/RTD      IF (ALLOCATED(LON2DEQ)) DEALLOCATE(LAT2DEQ, LON2DEQ, ANGLD2D)
!
      RETURN
!
! Error escape locations
!
  800 CONTINUE
      WRITE (NDSE,1000) IERR
      CALL EXTCDE (2)
!
! Formats
!
  973 FORMAT ( 'NEW NETCDF FILE WAS CREATED ',A)
  999 FORMAT (/' *** WAVEWATCH III ERROR IN W3EXNC :'/                &
               '     PLEASE UPDATE FIELDS !!! '/                      &
               '     IFI = ',I2, '- IFJ = ',I2/)
!
 1000 FORMAT (/' *** WAVEWATCH III ERROR IN W3EXNC : '/               &
               '     ERROR IN OPENING OUTPUT FILE'/                   &
               '     IOSTAT =',I5/)
!               
!/T 9000 FORMAT (' TEST W3EXNC : FLAGS :',I3,2X,20L2)
!/T 9001 FORMAT (' TEST W3EXNC : ITPYE :',I4/                         &
!/T              '             IX1/N   :',2I7/                        &
!/T              '             IY1/N   :',2I7/                        &
!/T              '             VECTOR  :',1L2)
!
!/T 9012 FORMAT (' TEST W3EXNC : BLOK PARS    : ',3I4)
!/T 9014 FORMAT ('           BASE NAME : ',A)
!
!/T 9020 FORMAT (' TEST W3EXNC : OUTPUT FIELD : ',A)
!/



!/ End of W3EXNC ----------------------------------------------------- /
!/
      END SUBROUTINE W3EXNC




!--------------------------------------------------------------------------    
      SUBROUTINE W3CRNC (NCFILE, NCID, DIMID, DIMLN, VARID,  &
                         EXTRADIM, NCTYPE, MAPSTAOUT )
      USE W3GDATMD
      USE NETCDF
      USE W3TIMEMD

      IMPLICIT NONE
      


      INTEGER, INTENT(IN)               :: EXTRADIM
      INTEGER, INTENT(IN)               :: NCTYPE
      CHARACTER*(*), INTENT(IN)         :: NCFILE
      INTEGER, INTENT(OUT)              :: NCID
      INTEGER, INTENT(OUT)              :: DIMID(6)
      INTEGER, INTENT(IN)               :: DIMLN(6)
      INTEGER, INTENT(OUT)              :: VARID(300)
      INTEGER, INTENT(IN)               :: MAPSTAOUT
!
!/ ------------------------------------------------------------------- /
!   Local parameters
!
      INTEGER                           :: IVAR,IRET,ICODE,STRL,STRL2
      INTEGER                           :: DIMTRI(2)
!/NC4    INTEGER                           :: DEFLATE=1
!
      CHARACTER                         :: ATTNAME*120,ATTVAL*120


!      
! Creation in netCDF3 or netCDF4
!
      IF(NCTYPE.EQ.3)  IRET = NF90_CREATE(TRIM(NCFILE), NF90_CLOBBER, NCID)
!/NC4      IF(NCTYPE.EQ.4) IRET = NF90_CREATE(TRIM(NCFILE), NF90_NETCDF4, NCID)
      CALL CHECK_ERR(IRET)
!
! Define dimensions
!
      IRET = NF90_DEF_DIM(NCID, 'level', DIMLN(1), DIMID(1))

!
! Regular structured case
!
      IF (GTYPE.NE.UNGTYPE) THEN 
        IF (FLAGLL) THEN
          IF (SMCGRD) THEN
!/SMC            IF(SMCTYPE .EQ. 1) THEN
!/SMC               ! Flat seapoints file
!/SMC               IRET = NF90_DEF_DIM(NCID, 'seapoint', dimln(2), DIMID(2))
!/SMC            ELSE
!/SMC               ! Regular gridded file:
!/SMC               IRET = NF90_DEF_DIM(NCID, 'longitude', dimln(2), DIMID(2))
!/SMC               IRET = NF90_DEF_DIM(NCID, 'latitude', dimln(3), DIMID(3))
!/SMC            ENDIF
          ELSE
            IRET = NF90_DEF_DIM(NCID, 'longitude', DIMLN(2), DIMID(2))
            IRET = NF90_DEF_DIM(NCID, 'latitude', DIMLN(3), DIMID(3))
          ENDIF ! SMCGRD
        ELSE                     
          IRET = NF90_DEF_DIM(NCID, 'x', DIMLN(2), DIMID(2))
          IRET = NF90_DEF_DIM(NCID, 'y', DIMLN(3), DIMID(3))
          END IF
        CALL CHECK_ERR(IRET)
!
! Unstructured case
!
      ELSE
        IRET = NF90_DEF_DIM(NCID, 'node', DIMLN(2), DIMID(2))
        IRET = NF90_DEF_DIM(NCID, 'element', DIMLN(3), DIMID(3))
        CALL CHECK_ERR(IRET)
      ENDIF
!
!


      IF (EXTRADIM.EQ.1) THEN
        IRET = NF90_DEF_DIM(NCID, 'f', DIMLN(4), DIMID(4))
        CALL CHECK_ERR(IRET)
      ENDIF

      IRET = NF90_DEF_DIM(NCID, 'time',NF90_UNLIMITED, DIMID(4+EXTRADIM))
      CALL CHECK_ERR(IRET)

      IF (GTYPE.EQ.UNGTYPE) THEN 
        IRET = NF90_DEF_DIM(NCID, 'noel',3, DIMID(5+EXTRADIM))
        CALL CHECK_ERR(IRET)
      ENDIF

      
!
!     define variables
!
      IF (FLAGLL) THEN 
!longitude
        IF (GTYPE.EQ.RLGTYPE) THEN 
          IF (SMCGRD) THEN
!/SMC            IF(SMCTYPE .EQ. 1) THEN
!/SMC              ! Flat SMC grid - use seapoint dimension:
!/SMC              IRET = NF90_DEF_VAR(NCID, 'longitude', NF90_FLOAT, DIMID(2), VARID(1))
!/SMC              CALL CHECK_ERR(IRET)
!/SMC              IRET = NF90_DEF_VAR(NCID, 'latitude', NF90_FLOAT, DIMID(2), VARID(2))
!/SMC              CALL CHECK_ERR(IRET)
!/SMC
!/SMC              ! For seapoint style SMC grid, also define out cell size variables:
!/SMC              IRET = NF90_DEF_VAR(NCID, 'cx', NF90_SHORT, DIMID(2), VARID(299))
!/SMC              CALL CHECK_ERR(IRET)
!/SMC              IRET = NF90_PUT_ATT(NCID, VARID(299), 'long_name',        &
!/SMC                                  'longitude cell size factor')
!/SMC              IRET = NF90_PUT_ATT(NCID, VARID(299), 'valid_min', 1)
!/SMC              IRET = NF90_PUT_ATT(NCID, VARID(299), 'valid_max', 256)
!/SMC
!/SMC              IRET = NF90_DEF_VAR(NCID, 'cy', NF90_SHORT, DIMID(2), VARID(300))
!/SMC              call CHECK_ERR(IRET)
!/SMC              IRET = NF90_PUT_ATT(NCID, VARID(300), 'long_name',        &
!/SMC                                  'latitude cell size factor')
!/SMC              IRET = NF90_PUT_ATT(NCID, VARID(300), 'valid_min', 1)
!/SMC              IRET = NF90_PUT_ATT(NCID, VARID(300), 'valid_max', 256)
!/SMC            ELSE
!/SMC              ! Regirdded regular SMC grid - use lon/lat dimensions:
!/SMC              IRET = NF90_DEF_VAR(NCID, 'longitude', NF90_FLOAT, DIMID(2), VARID(1))
!/SMC              call CHECK_ERR(IRET)
!/SMC              IRET = NF90_DEF_VAR(NCID, 'latitude', NF90_FLOAT, DIMID(3), VARID(2))
!/SMC              call CHECK_ERR(IRET)
!/SMC            ENDIF
          ELSE
            IRET = NF90_DEF_VAR(NCID, 'longitude', NF90_FLOAT, DIMID(2), VARID(1))
            IRET = NF90_DEF_VAR(NCID, 'latitude', NF90_FLOAT, DIMID(3), VARID(2))
          ENDIF ! SMCGRD
        ELSE IF (GTYPE.EQ.CLGTYPE) THEN
          IRET = NF90_DEF_VAR(NCID, 'longitude', NF90_FLOAT, (/ DIMID(2), DIMID(3)/), &
                                                                            VARID(1))
          IRET = NF90_DEF_VAR(NCID, 'latitude', NF90_FLOAT, (/ DIMID(2), DIMID(3)/), &
                                                                            VARID(2))
        ELSE
          IRET = NF90_DEF_VAR(NCID, 'longitude', NF90_FLOAT, DIMID(2), VARID(1))
          IRET = NF90_DEF_VAR(NCID, 'latitude', NF90_FLOAT, DIMID(2), VARID(2))
          END IF
        IRET=NF90_PUT_ATT(NCID,VARID(1),'units','degree_east')
        IRET=NF90_PUT_ATT(NCID,VARID(1),'long_name','longitude')
        IRET=NF90_PUT_ATT(NCID,VARID(1),'standard_name','longitude')
!/RTD        ! Override the above for RTD pole:
!/RTD        IRET=NF90_PUT_ATT(NCID,VARID(1),'long_name','longitude in rotated pole grid')
!/RTD        IRET=NF90_PUT_ATT(NCID,VARID(1),'standard_name','grid_longitude')
        IRET=NF90_PUT_ATT(NCID,VARID(1),'valid_min',-180.0)
        IRET=NF90_PUT_ATT(NCID,VARID(1),'valid_max',360.)
!
        IRET=NF90_PUT_ATT(NCID,VARID(2),'units','degree_north')
        IRET=NF90_PUT_ATT(NCID,VARID(2),'long_name','latitude')
        IRET=NF90_PUT_ATT(NCID,VARID(2),'standard_name','latitude')
!/RTD        ! Override the above for RTD pole:
!/RTD        IRET=NF90_PUT_ATT(NCID,VARID(2),'long_name','latitude in rotated pole grid')
!/RTD        IRET=NF90_PUT_ATT(NCID,VARID(2),'standard_name','grid_latitude')
        IRET=NF90_PUT_ATT(NCID,VARID(2),'valid_min',-90.0)
        IRET=NF90_PUT_ATT(NCID,VARID(2),'valid_max',180.)
!
        IF(SMCGRD) THEN
!/SMC          IF(SMCTYPE .EQ. 1) THEN
!/RTD            ! For SMC grid type 1, standard lat/lon variables are 1D:
!/RTD            IRET = NF90_DEF_VAR(NCID, 'standard_longitude', NF90_FLOAT, &
!/RTD                    (/ DIMID(2) /), VARID(291))
!/RTD            call CHECK_ERR(IRET)
!/RTD 
!/RTD            IRET = NF90_DEF_VAR(NCID, 'standard_latitude', NF90_FLOAT, &
!/RTD                    (/ DIMID(2) /), VARID(292))
!/RTD            call CHECK_ERR(IRET)
!/SMC          ELSE
!/RTD            IRET = NF90_DEF_VAR(NCID, 'standard_longitude', NF90_FLOAT, &
!/RTD                    (/ DIMID(2), DIMID(3)/), VARID(291))
!/RTD            call CHECK_ERR(IRET)
!/RTD
!/RTD            IRET = NF90_DEF_VAR(NCID, 'standard_latitude', NF90_FLOAT, &
!/RTD                    (/ DIMID(2), DIMID(3)/), VARID(292))
!/RTD            call CHECK_ERR(IRET)
!/SMC          ENDIF
        ELSE
!/RTD        !Add secondary coordinate system linking rotated grid back to standard lat-lon
!/RTD        IRET = NF90_DEF_VAR(NCID, 'standard_longitude', NF90_FLOAT, (/ DIMID(2), DIMID(3)/), &
!/RTD                             VARID(291))
!/RTD        call CHECK_ERR(IRET)
!/RTD
!/RTD        IRET = NF90_DEF_VAR(NCID, 'standard_latitude', NF90_FLOAT, (/ DIMID(2), DIMID(3)/), &
!/RTD                             VARID(292))
!/RTD        call CHECK_ERR(IRET)
        ENDIF ! SMCGRD
!/RTD
!/RTD        ! Attributes for standard_longitude:
!/RTD        IRET=NF90_PUT_ATT(NCID,VARID(291),'units','degree_east')
!/RTD        IRET=NF90_PUT_ATT(NCID,VARID(291),'long_name','longitude')
!/RTD        IRET=NF90_PUT_ATT(NCID,VARID(291),'standard_name','longitude')
!/RTD        IRET=NF90_PUT_ATT(NCID,VARID(291),'valid_min',-180.0)
!/RTD        IRET=NF90_PUT_ATT(NCID,VARID(291),'valid_max',360.)
!/RTD
!/RTD        ! Attributes for standard_latitude:
!/RTD        IRET=NF90_PUT_ATT(NCID,VARID(292),'units','degree_north')
!/RTD        IRET=NF90_PUT_ATT(NCID,VARID(292),'long_name','latitude')
!/RTD        IRET=NF90_PUT_ATT(NCID,VARID(292),'standard_name','latitude')
!/RTD        IRET=NF90_PUT_ATT(NCID,VARID(292),'valid_min',-90.0)
!/RTD        IRET=NF90_PUT_ATT(NCID,VARID(292),'valid_max',180.)
!/RTD
!/RTD        ! Add rotated pole grid mapping variable (dummy scalar variable
!/RTD        ! used to simply store rotated pole information; see CF1.6 conventions).
!/RTD        IRET=NF90_DEF_VAR(NCID, 'rotated_pole', NF90_CHAR, VARID(293))
!/RTD        IRET=NF90_PUT_ATT(NCID, VARID(293), 'grid_north_pole_latitude',POLAT)
!/RTD        IRET=NF90_PUT_ATT(NCID, VARID(293), 'grid_north_pole_longitude',POLON)
!/RTD        IRET=NF90_PUT_ATT(NCID, VARID(293), 'grid_mapping_name',              &
!/RTD                                   'rotated_latitude_longitude')
!
      ELSE 
        IF (GTYPE.EQ.RLGTYPE) THEN 
          IRET = NF90_DEF_VAR(NCID, 'x', NF90_FLOAT, DIMID(2), VARID(1))
          IRET = NF90_DEF_VAR(NCID, 'y', NF90_FLOAT, DIMID(3), VARID(2))
        ELSE IF (GTYPE.EQ.CLGTYPE) THEN 
          IRET = NF90_DEF_VAR(NCID, 'x', NF90_FLOAT, (/ DIMID(2), DIMID(3)/), &
                                                                            VARID(1))
          IRET = NF90_DEF_VAR(NCID, 'y', NF90_FLOAT, (/ DIMID(2), DIMID(3)/), &
                                                                            VARID(2))
        ELSE
          IRET = NF90_DEF_VAR(NCID, 'x', NF90_FLOAT, DIMID(2), VARID(1))
          IRET = NF90_DEF_VAR(NCID, 'y', NF90_FLOAT, DIMID(2), VARID(2))
          END IF
!
        IRET=NF90_PUT_ATT(NCID,VARID(1),'units','m')
        IRET=NF90_PUT_ATT(NCID,VARID(1),'long_name','x')
        IRET=NF90_PUT_ATT(NCID,VARID(2),'units','m')
        IRET=NF90_PUT_ATT(NCID,VARID(2),'long_name','y')
!
      END IF  ! FLAGLL
!
      IRET=NF90_PUT_ATT(NCID,VARID(1),'axis','X')    
      IRET=NF90_PUT_ATT(NCID,VARID(2),'axis','Y')
!/NC4        IF (NCTYPE.EQ.4) IRET = NF90_DEF_VAR_DEFLATE(NCID, VARID(1), 1, 1, DEFLATE)
!/NC4        IF (NCTYPE.EQ.4) IRET = NF90_DEF_VAR_DEFLATE(NCID, VARID(2), 1, 1, DEFLATE)

!
! frequency
!
      if (EXTRADIM.EQ.1) THEN
        IRET = NF90_DEF_VAR(NCID, 'f', NF90_FLOAT, DIMID(4), VARID(3))
!/NC4        IF (NCTYPE.EQ.4) IRET = NF90_DEF_VAR_DEFLATE(NCID, VARID(3), 1, 1, DEFLATE)
        CALL CHECK_ERR(IRET)
        IRET=NF90_PUT_ATT(NCID,VARID(3),'long_name','wave_frequency')
        CALL CHECK_ERR(IRET)
        IRET=NF90_PUT_ATT(NCID,VARID(3),'standard_name','wave_frequency')
        CALL CHECK_ERR(IRET)
        IRET=NF90_PUT_ATT(NCID,VARID(3),'units','s-1')
        CALL CHECK_ERR(IRET)
        IRET=NF90_PUT_ATT(NCID,VARID(3),'axis','Hz')
        CALL CHECK_ERR(IRET)
      END IF


!
!  time
!
      IRET = NF90_DEF_VAR(NCID, 'time', NF90_DOUBLE, DIMID(4+EXTRADIM), VARID(3+EXTRADIM))
!/NC4      IF (NCTYPE.EQ.4) IRET = NF90_DEF_VAR_DEFLATE(NCID, VARID(3+EXTRADIM), 1, 1, DEFLATE)
      CALL CHECK_ERR(IRET)
      IRET=NF90_PUT_ATT(NCID,VARID(3+EXTRADIM),'long_name','julian day (UT)')
      CALL CHECK_ERR(IRET)
      IRET=NF90_PUT_ATT(NCID,VARID(3+EXTRADIM),'standard_name','time')
      CALL CHECK_ERR(IRET)
      IRET=NF90_PUT_ATT(NCID,VARID(3+EXTRADIM),'calendar','standard')
      CALL CHECK_ERR(IRET)
      IRET=NF90_PUT_ATT(NCID,VARID(3+EXTRADIM),'units','days since 1990-01-01 00:00:00')
      CALL CHECK_ERR(IRET)
      IRET=NF90_PUT_ATT(NCID,VARID(3+EXTRADIM),'conventions', &
        'relative julian days with decimal part (as parts of the day )')
      IRET=NF90_PUT_ATT(NCID,VARID(3+EXTRADIM),'axis','T')
      CALL CHECK_ERR(IRET)
!
! triangles for irregular grids
!
      IF (GTYPE.EQ.UNGTYPE) THEN
        IVAR=3+EXTRADIM+1
        DIMTRI(1)=DIMID(4+EXTRADIM+1)
        DIMTRI(2)=DIMID(3)
        IRET = NF90_DEF_VAR(NCID, 'tri', NF90_INT, DIMTRI, VARID(IVAR))
!/NC4        IF (NCTYPE.EQ.4) IRET = NF90_DEF_VAR_DEFLATE(NCID, VARID(IVAR), 1, 1, DEFLATE)
      END IF
!
!  Status map: useful for grid combination
!
      IF (MAPSTAOUT.EQ.1) THEN 
        IF (GTYPE.EQ.UNGTYPE) THEN 
          IVAR=5+EXTRADIM
          IRET = NF90_DEF_VAR(NCID,'MAPSTA', NF90_SHORT,(/ DIMID(2) /), VARID(IVAR)) 
        ELSE 
          IVAR=4+EXTRADIM
          IRET = NF90_DEF_VAR(NCID,'MAPSTA', NF90_SHORT,(/ DIMID(2) , DIMID(3) /), &
                                                                       VARID(IVAR)) 
          ENDIF
!/NC4          IF (NCTYPE.EQ.4) IRET = NF90_DEF_VAR_DEFLATE(NCID, VARID(IVAR), 1, 1, DEFLATE)
!
        IRET=NF90_PUT_ATT(NCID,VARID(IVAR),'long_name','status map')
        IRET=NF90_PUT_ATT(NCID,VARID(IVAR),'standard_name','status map')
        IRET=NF90_PUT_ATT(NCID,VARID(IVAR),'units','1')
        CALL CHECK_ERR(IRET)
        IRET=NF90_PUT_ATT(NCID,VARID(IVAR),'valid_min',-32)
        CALL CHECK_ERR(IRET)
        IRET=NF90_PUT_ATT(NCID,VARID(IVAR),'valid_max',32)
        CALL CHECK_ERR(IRET)
      END IF

!
! Global attributes
!
      IRET=NF90_PUT_ATT(NCID,NF90_GLOBAL,'WAVEWATCH_III_version_number' ,TRIM(WWVER))   
      CALL CHECK_ERR(IRET)
      IRET=NF90_PUT_ATT(NCID,NF90_GLOBAL,'WAVEWATCH_III_switches',TRIM(SWITCHES))
      CALL CHECK_ERR(IRET)
!/ST4    IF (ZZWND.NE.10)      IRET=NF90_PUT_ATT(NCID,NF90_GLOBAL,'SIN4 namelist parameter ZWD',ZZWND)
!/ST4    IF (AALPHA.NE.0.0095) IRET=NF90_PUT_ATT(NCID,NF90_GLOBAL,'SIN4 namelist parameter ALPHA0',AALPHA)
!/ST4    IF (BBETA.NE.1.43)    IRET=NF90_PUT_ATT(NCID,NF90_GLOBAL,'SIN4 namelist parameter BETAMAX',BBETA)
!/ST4    IF(SSDSC(7).NE.0.3)   IRET=NF90_PUT_ATT(NCID,NF90_GLOBAL,'SDS4 namelist parameter WHITECAPWIDTH', SSDSC(7))
! ... TO BE CONTINUED ... 

      IF(SMCGRD) THEN
!/SMC         IF(SMCTYPE .EQ. 1) THEN
!/SMC           IRET = NF90_PUT_ATT(NCID, NF90_GLOBAL, 'first_lat', Y0)
!/SMC           call CHECK_ERR(IRET)
!/SMC           IRET = NF90_PUT_ATT(NCID, NF90_GLOBAL, 'first_lon', X0)
!/SMC           call CHECK_ERR(IRET)
!/SMC           IRET = NF90_PUT_ATT(NCID, NF90_GLOBAL, 'base_lat_size', dlat)
!/SMC           call CHECK_ERR(IRET)
!/SMC           IRET = NF90_PUT_ATT(NCID, NF90_GLOBAL, 'base_lon_size', dlon)
!/SMC           call CHECK_ERR(IRET)
!/SMC           IRET=NF90_PUT_ATT(NCID,NF90_GLOBAL,'SMC_grid_type','seapoint')
!/SMC           call CHECK_ERR(IRET)
!/SMC         ELSE IF(SMCTYPE .EQ. 2) THEN
!/SMC           IRET=NF90_PUT_ATT(NCID,NF90_GLOBAL,'SMC_grid_type','regular_regridded')
!/SMC           call CHECK_ERR(IRET)
!/SMC         ENDIF
      ENDIF

      open(unit=994,file='NC_globatt.inp',status='old',iostat=ICODE)
      IF (ICODE.EQ.0) THEN
        DO WHILE (ICODE.EQ.0)
          read(994,'(a)',iostat=ICODE) ATTNAME
          read(994,'(a)',iostat=ICODE) ATTVAL
          IF (ICODE.EQ.0) THEN
            STRL=LEN_TRIM(ATTNAME)
            STRL2=LEN_TRIM(ATTVAL)
            IRET=NF90_PUT_ATT(NCID,NF90_GLOBAL,ATTNAME(1:STRL),ATTVAL(1:STRL2))
            CALL CHECK_ERR(IRET)
          END IF
        END DO
      ENDIF
      CLOSE(994)
      IRET=NF90_PUT_ATT(NCID,NF90_GLOBAL,'product_name' ,TRIM(NCFILE))   
      CALL CHECK_ERR(IRET)
      IRET=NF90_PUT_ATT(NCID,NF90_GLOBAL,'area',TRIM(GNAME))
      CALL CHECK_ERR(IRET)

      RETURN

      END SUBROUTINE W3CRNC 

!==============================================================================

      SUBROUTINE CHECK_ERR(IRET)

      USE NETCDF
      USE W3ODATMD, ONLY: NDSE
      USE W3SERVMD, ONLY: EXTCDE

      IMPLICIT NONE

      INTEGER IRET

      IF (IRET .NE. NF90_NOERR) THEN
        WRITE(NDSE,*) ' *** WAVEWATCH III ERROR IN OUNF :'
        WRITE(NDSE,*) ' NETCDF ERROR MESSAGE: '
        WRITE(*,*) NF90_STRERROR(IRET)
        CALL EXTCDE ( 59 )
      END IF
      RETURN

      END SUBROUTINE CHECK_ERR

!==============================================================================


!/
!/ End of W3OUNF ----------------------------------------------------- /
!/
     END PROGRAM W3OUNF





