#include "w3macros.h"
#define CHECK_ERR(I) CHECK_ERROR(I, __LINE__)
!/ ------------------------------------------------------------------- /
      PROGRAM W3OUNF
!/
!/                  +-----------------------------------+
!/                  | WAVEWATCH III           NOAA/NCEP |
!/                  |           F. Ardhuin              |
!/                  |           M. Accensi              |
!/                  |                        FORTRAN 90 |
!/                  | Last update :         26-Jan-2021 |
!/                  +-----------------------------------+
!/
!/    17-Mar-2010 : Creation                            ( version 3.14_SHOM )
!/    07-Nov-2011 : Debug for spectral output on UNST   ( version 4.04 )
!/    13-Mar-2012 : Update of NC attributes             ( version 4.04 )
!/    02-Apr-2013 : New structure of output fields.     ( version 4.10 )
!/    02-Jul-2013 : Bug correction for lat in unst grid ( version 4.11 )
!/    02-Nov-2013 : Removes unnecessary IDFM            ( version 4.12 )
!/    30-Apr-2014 : Correct group3 freq dim.            ( version 5.00 )
!/    23-May-2014 : Adding ice fluxes to W3SRCE         ( version 5.01 )
!/    14-Oct-2014 : Keep the output files opened        ( version 5.01 )
!/    27-Aug-2015 : ICEH and ICEF added as output       ( version 5.10 )
!/    10-Jan-2017 : Changes for US3D and USSP output    ( version 6.01 )
!/    01-May-2017 : Adds directional MSS parameters     ( version 6.04 )
!/    01-Mar-2018 : RTD option add variable de-rotation,( version 6.02 )
!/                  standard lat-lons and rotated grid
!/                  metadata
!/    15-May-2018 : Add namelist feature                ( version 6.05 )
!/    06-Jun-2018 : Add DEBUG/SETUP                     ( version 6.04 )
!/    27-Jun-2018 : Updated to handle SMC output.       ( version 6.05 )
!/    26-Jul-2018 : Changed reading of TABIPART         ( version 6.05 )
!/    12-Sep-2018 : Added extra partitioned fields      ( version 6.06 )
!/    25-Sep-2018 : Add WBT parameter                   ( version 6.06 )
!/    28-Mar-2019 : Bugfix to NBIPART check.            ( version 6.07 )
!/    18-Jun-2020 : Support for 360-day calendar.       ( version 7.08 )
!/    07-Oct-2019 : RTD option with standard lat-lon
!/                  grid when nesting to rotated grid   ( version 7.11 )
!/    03-Nov-2020 : Moved NetCDF metadata to separate   ( version 7.12 )
!/                  module.
!/    09-Dec-2020 : Set fixed values for VARID indices  ( version 7.12 )
!/    26-Jan-2021 : Added TP output (derived from fp)   ( version 7.12 )
!/                  and alternative dir/mag output.
!/
!/    Copyright 2009-2013 National Weather Service (NWS),
!/       National Oceanic and Atmospheric Administration.  All rights
!/       reserved.  WAVEWATCH III is a trademark of the NWS. 
!/       No unauthorized use without permission.
!/
!  1. Purpose :
!
!     Post-processing of grid output to NetCDF files
!
!  2. Method :
!
!     Data is read from the grid output file out_grd.ww3 (raw data)
!     and from the file ww3_ounf.nml or ww3_ounf.inp (NDSI)
!     Model definition and raw data files are read using WAVEWATCH III
!     subroutines. Extra global NetCDF attributes may be read from 
!     ASCII file NC_globatt.inp.
!
!     Output types :
!      4 : NetCDF files
!
!  3. Parameters :
!
!  4. Subroutines used :
!
!      Name      Type  Module   Description
!     ----------------------------------------------------------------
!      W3NMOD    Subr. W3GDATMD Set number of model.
!      W3SETG    Subr.   Id.    Point to selected model.
!      W3NDAT    Subr. W3WDATMD Set number of model for wave data.
!      W3SETW    Subr.   Id.    Point to selected model for wave data.
!      W2NAUX    Subr. W3ADATMD Set number of model for aux data.
!      W3SETA    Subr.   Id.    Point to selected model for aux data.
!      ITRACE    Subr. W3SERVMD Subroutine tracing initialization.
!      STRACE    Subr.   Id.    Subroutine tracing.
!      NEXTLN    Subr.   Id.    Get next line from input filw
!      EXTCDE    Subr.   Id.    Abort program as graceful as possible.
!      STME21    Subr. W3TIMEMD Convert time to string.
!      TICK21    Subr.   Id.    Advance time.
!      DSEC21    Func.   Id.    Difference between times.
!      W3IOGR    Subr. W3IOGRMD Reading/writing model definition file.
!      W3IOGO    Subr. W3IOGOMD Reading/writing raw gridded data file.
!      W3EXNC    Subr. Internal Execute grid netcdf output.
!     ----------------------------------------------------------------
!
!  5. Called by :
!
!     None, stand-alone program.
!
!  6. Error messages :
!
!     Checks on input, checks in W3IOxx.
!
!  7. Remarks :
!
!     The VARID array stores netCDF variable IDs for all variables in
!     file. The first 20 elements are reserved for dimension/auxiliary
!     variables as defined below:
!
!       Index     Variable
!       =====     ========
!         1       Lon
!         2       Lat
!         3       Time
!         4       Tri (UGRD)
!         5       SMC CX (SMC)
!         6       SMC CY (SMC)
!         7       Standard longitude (SMC/RTD)
!         8       Standard latitude (SMC/RTD)
!         9       Coordinate reference system (upcoming feature / RTD)
!        10       Freq (extradim)
!        11       Forecast period (upcoming feature)
!        12       Forecast reference time (upcoming feature)
!        13-19    [Reserved for future use]
!        20       MAPSTA
!
!    Indices 21 - 300 are for storage of field output variable IDs.
!
!  8. Structure :
!
!     See source code.
!
!  9. Switches :
!
!     !/S     Enable subroutine tracing.
!
! 10. Source code :
!
!/ ------------------------------------------------------------------- /
      USE CONSTANTS

!/
      USE W3WDATMD, ONLY: W3NDAT, W3SETW
      USE W3ADATMD, ONLY: W3NAUX, W3SETA
      USE W3ODATMD, ONLY: W3NOUT, W3SETO
      USE W3SERVMD, ONLY : ITRACE, NEXTLN, EXTCDE
!/S      USE W3SERVMD, ONLY : STRACE
      USE W3TIMEMD
      USE W3IOGRMD, ONLY: W3IOGR
      USE W3IOGOMD, ONLY: W3IOGO, W3READFLGRD, W3FLGRDFLAG
      USE W3INITMD, ONLY: WWVER, SWITCHES
      USE W3ODATMD, ONLY: NAPROC, NOSWLL, PTMETH, PTFCUT
!/DEBUG      USE W3ODATMD, only : IAPROC
!/
      USE W3GDATMD
      USE W3WDATMD, ONLY: TIME, WLV, ICE, ICEH, ICEF, BERG, UST, USTDIR
!/SETUP     USE W3WDATMD, ONLY: ZETA_SETUP
      USE W3ADATMD, ONLY: DW, UA, UD, AS, CX, CY, HS, WLM, T0M1, THM,  &
                          THS, FP0, THP0, DTDYN, FCUT,                 &
                          ABA, ABD, UBA, UBD, SXX, SYY, SXY, USERO,    &
                          PHS, PTP, PLP, PDIR, PSI, PWS, PWST, PNR,    &
                          PTM1, PT1, PT2, PEP,                         &
                          PTHP0, PQP, PSW, PPE, PGW, QP,               &
                          TAUOX, TAUOY, TAUWIX,                        &
                          TAUWIY, PHIAW, PHIOC, TUSX, TUSY, PRMS, TPMS,&
                          USSX, USSY, MSSX, MSSY, MSSD, MSCX, MSCY,    &
                          MSCD, CHARN, TWS,                            &
                          TAUWNX, TAUWNY, BHD, T02, HSIG, CGE,         &
                          T01, BEDFORMS, WHITECAP, TAUBBL, PHIBBL,     &
                          CFLTHMAX, CFLXYMAX, CFLKMAX, TAUICE, PHICE,  &
                          STMAXE, STMAXD, HMAXE, HCMAXE, HMAXD, HCMAXD,&
                          P2SMS, EF, US3D, TH1M, STH1M, TH2M, STH2M,   &
                          WN, USSP, WBT
      USE W3ODATMD, ONLY: NDSO, NDSE, SCREEN, NOGRP, NGRPP, IDOUT,     &
                          UNDEF, FLOGRD, FNMPRE, NOSWLL, NOGE
!
      USE W3NMLOUNFMD
!
      USE W3OUNFMETAMD, ONLY: INIT_META, TEARDOWN_META, GETMETA,       &
                              WRITE_META, WRITE_GLOBAL_META,           &
                              META_T, NCVARTYPE
!
      USE NETCDF

!/SMC      USE W3SMCOMD

      IMPLICIT NONE

!/
!/ ------------------------------------------------------------------- /
!/ Local parameters
!/
      TYPE(NML_FIELD_T)       :: NML_FIELD
      TYPE(NML_FILE_T)        :: NML_FILE
      TYPE(NML_SMC_T)         :: NML_SMC
!
      INTEGER                 :: NDSI, NDSM, NDSOG,                    &
                                 NDSTRC, NTRACE, IERR, I, I1F, I2F,    &
                                 IOTEST, NOUT,                         &
                                 IFI, IFJ, NCTYPE, IX1, IXN, IY1, IYN, &
                                 IOUT, S3, IRET, HASNC4,               &
                                 NBIPART, CNTIPART, NCVARTYPEI, IPART, &
                                 RTDNX, RTDNY
      INTEGER                 :: TOUT(2), TDUM(2), STOPDATE(8)
!
      INTEGER, ALLOCATABLE    :: TABIPART(:), NCIDS(:,:,:)
!
!/S      INTEGER, SAVE           :: IENT = 0
!
      REAL                    :: DTREQ, DTEST
!
      CHARACTER*30            :: STRSTOPDATE, FILEPREFIX, STRINGIPART
      CHARACTER*1024          :: FLDOUT
      CHARACTER               :: COMSTR*1, IDTIME*23, IDDDAY*11
!
      LOGICAL                 :: FLG2D(NOGRP,NGRPP), FLG1D(NOGRP),     &
                                 VECTOR, TOGETHER, FLGNML

      LOGICAL                 :: SMCGRD = .FALSE.
!/
!/ ------------------------------------------------------------------- /
!/
! 1.  IO set-up.
!
      CALL W3NMOD ( 1, 6, 6 )
      CALL W3SETG ( 1, 6, 6 )
      CALL W3NDAT (    6, 6 )
      CALL W3SETW ( 1, 6, 6 )
      CALL W3NAUX (    6, 6 )
      CALL W3SETA ( 1, 6, 6 )
      CALL W3NOUT (    6, 6 )
      CALL W3SETO ( 1, 6, 6 )
!
      NDSI   = 10
      NDSM   = 20
      NDSOG  = 20
!
      NDSTRC =  6
      NTRACE = 10
      CALL ITRACE ( NDSTRC, NTRACE )
!
!/S      CALL STRACE (IENT, 'W3OUNF')
!
      WRITE (NDSO,900)

!/SMC      SMCGRD = .TRUE.
!
!
!--- - - - - - - - - - - - - - - - - - - - - - - - - - - - - - - - - -
! 2.  Read model definition file.
!
      CALL W3IOGR ( 'READ', NDSM )
      WRITE (NDSO,920) GNAME
!
!--- - - - - - - - - - - - - - - - - - - - - - - - - - - - - - - - - -
! 3.  Read general data and first fields from file
!
!/DEBUG      WRITE (NDSO,*) 'Before FLOGRD(2,1)=', FLOGRD(2,1)
!/DEBUG      WRITE (NDSO,*) 'IAPROC=', IAPROC
!/DEBUG      WRITE(740+IAPROC,*) 'Calling W3IOGO from ww3_ounf'
!/DEBUG      FLUSH(740+IAPROC)
      CALL W3IOGO ( 'READ', NDSOG, IOTEST )
!
      WRITE (NDSO,930)
      DO IFI=1, NOGRP
        DO IFJ=1, NGRPP
          IF ( FLOGRD(IFI,IFJ) ) WRITE (NDSO,931) IDOUT(IFI,IFJ)
        END DO
      END DO
!
!--- - - - - - - - - - - - - - - - - - - - - - - - - - - - - - - - - -
! 4.  Read requests from input file.
!

!
! process ww3_ounf namelist
!
      INQUIRE(FILE=TRIM(FNMPRE)//"ww3_ounf.nml", EXIST=FLGNML) 
      IF (FLGNML) THEN
        ! Read namelist
        CALL W3NMLOUNF (NDSI, TRIM(FNMPRE)//'ww3_ounf.nml', NML_FIELD, &
                        NML_FILE, NML_SMC, IERR)

! 4.1 Time setup
        READ(NML_FIELD%TIMESTRIDE, *)  DTREQ
        READ(NML_FIELD%TIMECOUNT, *)   NOUT
        READ(NML_FIELD%TIMESTART, *)   TOUT(1), TOUT(2)

! 4.2 Output fields
        FLDOUT = NML_FIELD%LIST
        CALL W3FLGRDFLAG ( NDSO, SCREEN, NDSE, FLDOUT, FLG1D,       &
                           FLG2D, 1, 1, IERR )
        IF (IERR.NE.0) GOTO 800 

! 4.3 Output type
        NCTYPE = NML_FILE%NETCDF
        NCVARTYPE = NML_FIELD%TYPE
        STRINGIPART = NML_FIELD%PARTITION
        TOGETHER = NML_FIELD%SAMEFILE
        VECTOR = NML_FIELD%VECTOR
        FILEPREFIX = NML_FILE%PREFIX
        S3 = NML_FIELD%TIMESPLIT
        IF(SMCGRD) THEN
!/SMC          SMCTYPE = NML_SMC%TYPE
!/SMC          SXO = NML_SMC%SXO
!/SMC          SYO = NML_SMC%SYO
!/SMC          EXO = NML_SMC%EXO
!/SMC          EYO = NML_SMC%EYO
!/SMC          CELFAC = NML_SMC%CELFAC
!/SMC          NOVAL = NML_SMC%NOVAL
        ELSE
          IX1 = NML_FILE%IX0
          IXN = NML_FILE%IXN 
          IY1 = NML_FILE%IY0 
          IYN = NML_FILE%IYN
        ENDIF ! SMCGRD
      END IF ! FLGNML
!
! process old ww3_ounf.inp format
!
      IF (.NOT. FLGNML) THEN
        OPEN (NDSI,FILE=TRIM(FNMPRE)//'ww3_ounf.inp',STATUS='OLD',ERR=800,IOSTAT=IERR)
        REWIND (NDSI)

        READ (NDSI,'(A)',END=801,ERR=802,IOSTAT=IERR) COMSTR
        IF (COMSTR.EQ.' ') COMSTR = '$'
        WRITE (NDSO,901) COMSTR
        CALL NEXTLN ( COMSTR , NDSI , NDSE )

! 4.1 Time setup
        READ (NDSI,*,END=801,ERR=802) TOUT, DTREQ, NOUT

! 4.2 Output fields
        CALL W3READFLGRD ( NDSI, NDSO, SCREEN, NDSE, COMSTR, FLG1D,      &
                           FLG2D, 1, 1, IERR )
        IF (IERR.NE.0) GOTO 800 

! 4.3 Output type
        CALL NEXTLN ( COMSTR , NDSI , NDSE )
        READ (NDSI,*,END=801,ERR=802) NCTYPE, NCVARTYPE
        CALL NEXTLN ( COMSTR , NDSI , NDSE )
        READ (NDSI,'(A)',END=801,ERR=802) STRINGIPART
        CALL NEXTLN ( COMSTR , NDSI , NDSE )
        READ (NDSI,*,END=801,ERR=802) TOGETHER
!        CALL NEXTLN ( COMSTR , NDSI , NDSE )
!        READ (NDSI,*,END=801,ERR=802) VECTOR
        CALL NEXTLN ( COMSTR , NDSI , NDSE )
        FILEPREFIX= 'ww3.'
        READ (NDSI,*,END=801,ERR=802) FILEPREFIX
        CALL NEXTLN ( COMSTR , NDSI , NDSE )
        READ (NDSI,*,END=801,ERR=802) S3
        CALL NEXTLN ( COMSTR , NDSI , NDSE )

!/SMC        ! SMC output type (1 or 2)
!/SMC        READ (NDSI,*,END=801,ERR=802) SMCTYPE
!/SMC        IF(SMCTYPE .EQ. 1) THEN  ! Flat sea point output
!/SMC           CALL NEXTLN ( COMSTR , NDSI , NDSE )
!/SMC           READ (NDSI,*,END=801,ERR=802) SXO, SYO, EXO, EYO
!/SMC        ELSE IF(SMCTYPE .EQ. 2) THEN  ! Regular grid output
!/SMC           CALL NEXTLN ( COMSTR , NDSI , NDSE )
!/SMC           READ (NDSI,*,END=801,ERR=802) SXO, SYO, EXO, EYO, CELFAC
!/SMC        ENDIF
!/SMC        NOVAL = UNDEF
        IF( .NOT. SMCGRD) THEN
           READ (NDSI,*,END=801,ERR=802) IX1, IXN, IY1, IYN
        ENDIF

        CLOSE(NDSI,ERR=800,IOSTAT=IERR)

        VECTOR = .TRUE.  ! Only vector output for .inp files.

      END IF ! .NOT. FLGNML

      ! Keep track of original NCVARTYPE, as it may change
      NCVARTYPEI = NCVARTYPE
!

! 4.1 Time setup
      DTREQ  = MAX ( 0. , DTREQ )
      IF ( DTREQ.EQ.0. ) NOUT = 1
      NOUT   = MAX ( 1 , NOUT )
      CALL STME21 ( TOUT , IDTIME )
      WRITE (NDSO,940) IDTIME
      TDUM = 0
      CALL TICK21 ( TDUM , DTREQ )
      CALL STME21 ( TDUM , IDTIME )
      IF ( DTREQ .GE. 86400. ) THEN
        WRITE (IDDDAY,'(I10,1X)') INT(DTREQ/86400.)
      ELSE
        IDDDAY = '           '
      END IF
      IDTIME(1:11) = IDDDAY
      IDTIME(21:23) = '   '
      WRITE (NDSO,941) IDTIME, NOUT


! 4.2 Output fields
      DO IFI=1, NOGRP
        DO IFJ=1, NGRPP
          IF ( FLG2D(IFI,IFJ) ) THEN
            IF ( FLOGRD(IFI,IFJ) ) THEN
              WRITE (NDSO,946) IDOUT(IFI,IFJ), ' '
            ELSE
              WRITE (NDSO,946) IDOUT(IFI,IFJ), '*** NOT AVAILABLE ***'
              FLG2D(IFI,IFJ) = .FALSE.
            END IF
          END IF
        END DO
      END DO


! 4.3 Output type
!!      NBIPART=0
!!      DO I=1,29
!!        IF ((STRINGIPART(I:I+1).EQ.'0').OR.(STRINGIPART(I:I+1).EQ.'1')      &
!!            .OR.(STRINGIPART(I:I+1).EQ.'2').OR.(STRINGIPART(I:I+1).EQ.'3')  &
!!            .OR.(STRINGIPART(I:I+1).EQ.'4').OR.(STRINGIPART(I:I+1).EQ.'5')) THEN
!!          NBIPART=NBIPART+1
!!        END IF
!!      END DO
!!      ALLOCATE(TABIPART(NBIPART))
!!      CNTIPART=0
!!      DO I=1,29
!!        IF ((STRINGIPART(I:I+1).EQ.'0').OR.(STRINGIPART(I:I+1).EQ.'1')      &
!!            .OR.(STRINGIPART(I:I+1).EQ.'2').OR.(STRINGIPART(I:I+1).EQ.'3')  &
!!            .OR.(STRINGIPART(I:I+1).EQ.'4').OR.(STRINGIPART(I:I+1).EQ.'5')) THEN
!!          CNTIPART=CNTIPART+1
!!          READ(STRINGIPART(I:I+1),'(I1)') TABIPART(CNTIPART)
!!        END IF
!!      END DO

      ! Alternative processing of TABIPART to capture requests 
      ! greater than NOSWLL (C.Bunney):
      ALLOCATE(TABIPART(NOSWLL + 1))
      ALLOCATE(NCIDS(NOGRP,NGRPP,NOSWLL + 1))
      NBIPART=0
      DO I=1,30
        IF(STRINGIPART(I:I) .EQ. ' ') CYCLE
        READ(STRINGIPART(I:I),'(I1)') IPART
        IF(IPART .GT. NOSWLL) THEN
           WRITE(NDSO, 1500) IPART, NOSWLL
           CYCLE
        ENDIF
        NBIPART = NBIPART + 1
        IF(NBIPART .GT. NOSWLL + 1) THEN
           GOTO 803
        ENDIF
        TABIPART(NBIPART) = IPART
      ENDDO
!
      IF ( NCTYPE.LT.3 .OR. NCTYPE.GT.4 ) THEN
        WRITE (NDSE,1010) NCTYPE
        CALL EXTCDE ( 1 )
      END IF
      ! if NCTYPE = 4 checking that it is compiled with NC4
      HASNC4=0
!/NC4      HASNC4=1
      IF ((HASNC4 .EQ. 0).AND.(NCTYPE.EQ.4)) THEN
        WRITE (NDSE,1012)
        CALL EXTCDE ( 1 )
      END IF

!/SMC      WRITE(NDSO, 4100)
!/SMC      IF(SMCTYPE .EQ. 1) THEN  ! Flat sea point output
!/SMC        ALLOCATE(SMCMASK(NSEA))
!/SMC        ALLOCATE(SMCIDX(NSEA))
!/SMC        SMCMASK(:) = .FALSE.
!/SMC        CALL SMC_INTERP()
!/SMC        SMCNOUT = COUNT(SMCMASK)
!/SMC        NXO = SMCNOUT
!/SMC        NYO = 1
!/SMC        WRITE(NDSO, 4120) SMCNOUT
!/SMC      ELSE IF(SMCTYPE .EQ. 2) THEN  ! Regular grid output
!/SMC        ! Calculate regridding weights:
!/SMC        ALLOCATE(XIDX(NSEA), YIDX(NSEA), XSPAN(NSEA),                   &
!/SMC                 YSPAN(NSEA), WTS(NSEA), SMCIDX(NSEA))
!/SMC        CALL SMC_INTERP()
!/SMC        WRITE(NDSO, 4110) NXO, NYO, SXO, SYO, DXO, DYO
!/SMC
!/SMC        ! Allocate space for coverage array and new MAPSTA array
!/SMC        ALLOCATE(COV(NXO,NYO), MAPSMC(NXO,NYO))
!/SMC      ENDIF
!/SMC
!/SMC      ! CB: IXN and IXY are calculated by SMC_INTERP for SMC GRID
!/SMC      IX1 = 1
!/SMC      IXN = NXO
!/SMC      IY1 = 1
!/SMC      IYN = NYO
!/SMC     
!/SMC      ! Also store NXO and NYO in __local__ RTDNX and RTDNY variables.
!/SMC      ! This avoids compilation errors when the RTD switch is enabled
!/SMC      ! but the SMC switch is not. TODO: Remove this when C-preprocessor
!/SMC      ! is used in preference to switches.
!/SMC      RTDNX = NXO
!/SMC      RTDNY = NYO
!/SMC

      IF(.NOT. SMCGRD) THEN
        IX1    = MAX ( IX1 , 1 )
        IXN    = MIN ( IXN , NX )
        IY1    = MAX ( IY1 , 1 )
        IYN    = MIN ( IYN , NY )
        WRITE (NDSO,3940) IX1, IXN, IY1, IYN
      ENDIF ! SMCGRD
!
! 4.4 Initialise meta-data
      CALL INIT_META(VECTOR)
!
!--- - - - - - - - - - - - - - - - - - - - - - - - - - - - - - - - - -
! 5.  Time management.
!
      IOUT = 0
      NCIDS(:,:,:) = 0
      WRITE (NDSO,970)


! 5.1 Loops on out_grd.ww3 to read the time and data
      DO
        DTEST  = DSEC21 ( TIME , TOUT )
        IF ( DTEST .GT. 0. ) THEN
          CALL W3IOGO ( 'READ', NDSOG, IOTEST )
            IF ( IOTEST .EQ. -1 ) THEN
              WRITE (NDSO,944)
              EXIT
            END IF
          CYCLE
        END IF
        IF ( DTEST .LT. 0. ) THEN
          CALL TICK21 ( TOUT , DTREQ )
          CYCLE
        END IF


! 5.1.1 Increments the time counter IOUT
        IOUT   = IOUT + 1
        CALL STME21 ( TOUT , IDTIME )
        WRITE (NDSO,971) IDTIME


! 5.1.2  Processes the variable value for the time step IOUT
        CALL W3EXNC ( NX, NY, IX1, IXN, IY1, IYN, NSEA, FILEPREFIX,   &
                      E3DF, P2MSF, US3DF, USSPF, NCTYPE, TOGETHER, NCVARTYPEI,&
                      FLG2D, NCIDS, S3, STRSTOPDATE )

! 5.1.3 Defines the stop date
        CALL T2D(TOUT,STOPDATE,IERR)
        WRITE(STRSTOPDATE,'(I4.4,A,4(I2.2,A),I2.2)') STOPDATE(1),'-',STOPDATE(2), &
              '-',STOPDATE(3),' ',STOPDATE(5),':',STOPDATE(6),':',STOPDATE(7) 

        CALL TICK21 ( TOUT , DTREQ )
        IF ( IOUT .GE. NOUT ) EXIT
      END DO

      CALL TEARDOWN_META()


! 5.2 Closes the netCDF file
      IF (TOGETHER .AND. NCIDS(1,1,1).NE.0) THEN
        IRET = NF90_REDEF(NCIDS(1,1,1))
        CALL CHECK_ERR(IRET)
        IRET=NF90_PUT_ATT(NCIDS(1,1,1),NF90_GLOBAL,'stop_date',STRSTOPDATE)
        CALL CHECK_ERR(IRET)
        IRET=NF90_CLOSE(NCIDS(1,1,1))
        CALL CHECK_ERR(IRET)
      END IF
!
      DO IFI=1, NOGRP
        DO IFJ=1, NGRPP
          IF ( FLG2D(IFI,IFJ) ) THEN
            IF ( FLOGRD(IFI,IFJ) ) THEN
              IF (.NOT. TOGETHER) THEN
                IF (NCIDS(IFI,IFJ,1).NE.0) THEN
                  IRET = NF90_REDEF(NCIDS(IFI,IFJ,1))
                  CALL CHECK_ERR(IRET)
                  IRET=NF90_PUT_ATT(NCIDS(IFI,IFJ,1),NF90_GLOBAL,'stop_date',STRSTOPDATE)
                  CALL CHECK_ERR(IRET)
                  IRET=NF90_CLOSE(NCIDS(IFI,IFJ,1))
                  CALL CHECK_ERR(IRET)
                END IF ! NCIDS
                ! close partition files (except part 0 which is already closed by (IFI,IFJ,1)
                IF ((IFI.EQ.4).AND.(IFJ.LE.NOGE(IFI))) THEN
                  DO IPART=1,NOSWLL
                    IF (NCIDS(IFI,IFJ,IPART+1).NE.0) THEN
                      IRET = NF90_REDEF(NCIDS(IFI,IFJ,IPART+1))
                      CALL CHECK_ERR(IRET)
                      IRET=NF90_PUT_ATT(NCIDS(IFI,IFJ,IPART+1),NF90_GLOBAL,'stop_date',STRSTOPDATE)
                      CALL CHECK_ERR(IRET)

                      IRET=NF90_CLOSE(NCIDS(IFI,IFJ,IPART+1))
                      CALL CHECK_ERR(IRET)
                    END IF ! NCIDS
                  END DO ! IPART
                END IF ! partition
              ! else if together
              ELSE
                ! close frequency file
                IF ( ((IFI.EQ.6).AND.(IFJ.EQ.8)) .OR.                 &
                     ((IFI.EQ.6).AND.(IFJ.EQ.9)) .OR.                 &
                     (IFI.EQ.3) ) THEN
                  IF (NCIDS(IFI,IFJ,1).NE.0) THEN
                    IRET = NF90_REDEF(NCIDS(IFI,IFJ,1))
                    CALL CHECK_ERR(IRET)
                    IRET=NF90_PUT_ATT(NCIDS(IFI,IFJ,1),NF90_GLOBAL,'stop_date',STRSTOPDATE)
                    CALL CHECK_ERR(IRET)
                    IRET=NF90_CLOSE(NCIDS(IFI,IFJ,1))
                    CALL CHECK_ERR(IRET)
                  END IF ! NCIDS
                END IF ! IFI
              END IF ! TOGETHER
            END IF ! FLOGRD
          END IF ! FLG2D
        END DO ! IFJ
      END DO ! IFI

!
      GOTO 888
!
! Escape locations read errors :
!
  800 CONTINUE
      WRITE (NDSE,1000) IERR
      CALL EXTCDE ( 10 )
!
  801 CONTINUE
      WRITE (NDSE,1001)
      CALL EXTCDE ( 11 )
!
  802 CONTINUE
      WRITE (NDSE,1002) IERR
      CALL EXTCDE ( 12 )
!
  803 CONTINUE
      WRITE (NDSE,1003) NBIPART, NOSWLL
      CALL EXTCDE (13)
!
  888 CONTINUE
      WRITE (NDSO,999)
!
! Formats
!
  900 FORMAT (/15X,'   *** WAVEWATCH III Field output postp. ***   '/ &
               15X,'==============================================='/)
  901 FORMAT ( '  Comment character is ''',A,''''/)
!
  920 FORMAT ( '  Grid name : ',A/)
!
  930 FORMAT ( '  Fields in file : '/                                 &
               ' --------------------------')
  931 FORMAT ( '      ',A)
!
  940 FORMAT (/'  Output time data : '/                               &
               ' --------------------------------------------------'/ &
               '      First time         : ',A)
  941 FORMAT ( '      Interval           : ',A/                       &
               '      Number of requests : ',I10)
  944 FORMAT (/'      End of file reached '/)
  946 FORMAT ( '      ',A,2X,A)
!
 3940 FORMAT ( '      X range : ',2I7/                                &
               '      Y range : ',2I7)
!
!/SMC 4100 FORMAT (//'  SMC grid output :' /                               &
!/SMC!
!/SMC               ' --------------------------------------------------')
!/SMC 4110 FORMAT ( '   SMC to regular lat/lon grid using cell averaging' /&
!/SMC               '   Aligned output grid definition: ' /                &
!/SMC               '      NX, NY           : ', 2I8 /                     &
!/SMC               '      X0, Y0           : ', 2F8.3 /                   &
!/SMC               '      DX, DY           : ', 2F8.5 )
!/SMC 4120 FORMAT ( '   Flat seapoint dimensioned SMC output file' /       &
!/SMC               '      Num seapoints    : ',I9 )
!/SMC!
!/SMC 4130 FORMAT ( '   SMC regridding to regular lat/lon grid.' /         &
!/SMC               '   Output grid definition: ' /                        &
!/SMC               '      NX, NY           : ', 2I8 /                     &
!/SMC               '      X0, Y0           : ', 2F8.3 /                   &
!/SMC               '      DX, DY           : ', 2F8.5 /                   &
!/SMC               '      Interpolate ?    : ', L )
!
  970 FORMAT (/'  Generating files '/                                 &
               ' --------------------------------------------------')
  971 FORMAT ( '      Files for ',A)
!
  999 FORMAT (/'  End of program '/                                   &
               ' ========================================='/          &
               '         WAVEWATCH III Field output '/)
!
 1000 FORMAT (/' *** WAVEWATCH III ERROR IN W3OUNF : '/               &
               '     ERROR IN OPENING INPUT FILE'/                    &
               '     IOSTAT =',I5/)
!
 1001 FORMAT (/' *** WAVEWATCH III ERROR IN W3OUNF : '/               &
               '     PREMATURE END OF INPUT FILE'/)
!
 1002 FORMAT (/' *** WAVEWATCH III ERROR IN W3OUNF : '/               &
               '     ERROR IN READING FROM INPUT FILE'/               &
               '     IOSTAT =',I5/)
!
 1003 FORMAT (/' *** WAVEWATCH III WERROR IN W3EXNC : '/              &
               '     OUT OF RANGE REQUEST FOR NBIPART =',I2, /        &
               '     MAX SWELL PARTITIONS (NOSW) =',I2 /)
!
 1010 FORMAT (/' *** WAVEWATCH III ERROR IN W3OUNF : '/               &
               '     ILLEGAL TYPE, NCTYPE =',I4/)
 1012 FORMAT (/' *** WAVEWATCH III ERROR IN W3OUNF : '/               &
               '     NCTYPE = 4 BUT NOT COMPILED WITH NC4'/)
!
 1500 FORMAT (/' *** WAVEWATCH III WARNING IN W3EXNC : '/             &
               '     IGNORING REQUEST FOR IPART =',I2, /              &
               '     MAX SWELL PARTITIONS (NOSW) =',I2 /)
!
!/
!/ Internal subroutine W3EXNC ---------------------------------------- /
!/
      CONTAINS
!/ ------------------------------------------------------------------- /
      SUBROUTINE W3EXNC ( NX, NY, IX1, IXN, IY1, IYN, NSEA,             &
                          FILEPREFIX, E3DF, P2MSF, US3DF, USSPF,NCTYPE, &
                          TOGETHER, NCVARTYPEI, FLG2D, NCIDS, S3, STRSTOPDATE )
!/
!/                  +-----------------------------------+
!/                  |           F. Ardhuin              |
!/                  |           M. Accensi              |
!/                  |                        FORTRAN 90 |
!/                  | Last update :         26-Jan-2021 |
!/                  +-----------------------------------+
!/
!/    17-Mar-2010 : Creation                            ( version 3.14_SHOM )
!/    28-Feb-2013 : New option for float output         ( version 4.08 )
!/    02-Apr-2013 : New structure of output fields.     ( version 4.09 )
!/    12-Apr-2013 : Allows curvilinear grids            ( version 4.10 ) 
!/    30-Apr-2014 : Correct group3 freq dim.            ( version 5.00 )
!/    23-May-2014 : Adding ice fluxes to W3SRCE         ( version 5.01 )
!/    14-Oct-2014 : Keep the output files opened        ( version 5.01 )
!/    03-Nov-2020 : NetCDF metadata moved to separate   ( version 7.12 )
!/                  module.
!/    09-Dec-2020 : Set fixed values for VARID indices  ( version 7.12 )
!/    26-Jan-2021 : Added TP output (derived from fp)   ( version 7.12 )
!/                  and alternative dir/mag output.
!/
!  1. Purpose :
!
!     Perform actual grid output in NetCDF file.
!
!  3. Parameters :
!
!     Parameter list
!     ----------------------------------------------------------------
!       NX/Y    Int.  I  Grid dimensions.
!       IX1/IXN Int.  I  Grid indexes along X
!       IY1/IYN Int.  I  Grid indexes along Y
!       NSEA    Int.  I  Number of sea points.
!     ----------------------------------------------------------------
!
!     Internal parameters
!     ----------------------------------------------------------------
!       FLTWO   Log.  Flags for two-dimensional field X Y.
!       FLDIR   Log.  Flags for two-dimensional, directional field.
!       FLFRQ   Log.  Flags for frequency array (3D field)
!       X1, X2, XX, XY
!               R.A.  Output fields
!     ----------------------------------------------------------------
!
!  4. Subroutines used :
!
!      Name      Type  Module   Description
!     ----------------------------------------------------------------
!      STRACE    Subr. W3SERVMD Subroutine tracing.
!      EXTCDE    Subr.   Id.    Abort program as graceful as possible.
!      W3S2XY    Subr.   Id.    Convert from storage to spatial grid.
!      PRTBLK    Subr. W3ARRYMD Print plot of array.
!      OUTA2I    Subr.   Id.    Print array of INTEGERS.
!     ----------------------------------------------------------------
!
!  5. Called by :
!
!     Main program in which it is contained.
!
!  6. Error messages :
!
!       None.
!
!  7. Remarks :
!
!     - Note that arrays CX and CY of the main program now contain
!       the absolute current speed and direction respectively.
!
!  8. Structure :
!
!     See source code.
!
!  9. Switches :
!
!       !/S  Enable subroutine tracing.
!       !/T  Enable test output.
!
! 10. Source code :
!
!/ ------------------------------------------------------------------- /
      USE W3SERVMD, ONLY : W3S2XY, UV_TO_MAG_DIR
!/RTD      USE W3SERVMD, ONLY : W3THRTN, W3XYRTN, W3EQTOLL
      USE W3ARRYMD, ONLY : OUTA2I, PRTBLK
      USE W3GDATMD, ONLY : SIG, GTYPE, FLAGLL, MAPSTA, MAPST2
      USE W3GDATMD, ONLY : NK, UNGTYPE, MAPSF, NTRI, CLGTYPE, RLGTYPE, &
                           XGRD, YGRD, SX, SY, X0, Y0, XYB, TRIGP, USSP_WN
!/RTD ! Rotated pole data from the mod_def file
!/RTD      USE W3GDATMD, ONLY : POLAT, POLON, FLAGUNR, AnglD
!/T      USE W3ODATMD, ONLY : NDST
      USE NETCDF
      IMPLICIT NONE

!/
!/ ------------------------------------------------------------------- /
!/ Parameter list
!/
      INTEGER, INTENT(IN)     :: NX, NY, IX1, IXN, IY1, IYN, NSEA,     &
                                 E3DF(3,5), P2MSF(3), US3DF(3),        & 
                                 USSPF(2), NCTYPE, NCVARTYPEI
      CHARACTER(30)           :: FILEPREFIX
      LOGICAL, INTENT(IN)     :: TOGETHER
      LOGICAL, INTENT(IN)     :: FLG2D(NOGRP,NGRPP)
      INTEGER, INTENT(INOUT)  :: NCIDS(NOGRP,NGRPP,NOSWLL + 1), S3
      CHARACTER*30,INTENT(IN) :: STRSTOPDATE
!/
!/ ------------------------------------------------------------------- /
!/ Local parameters
!/
      INTEGER                 :: IFI, IFJ, MFILL, I, J, ISEA, IX, IY,  &
                                 I1, J1, IPART, INDEXIPART, COORDTYPE
      INTEGER                 :: S1, S2, S4, S5, NCID, OLDNCID,        & 
                                 MAPSTAOUT, NDSDAT,                    &
                                 NFIELD, N, IRET, IK, EXTRADIM, IVAR,  &
                                 IVAR1
      INTEGER                 :: DIMID(6), VARID(300), START(4),       &
                                 COUNT(4), DIMLN(6),START1D(2),        &
                                 COUNT1D(2), DIMFIELD(3),              &
                                 STARTDATE(8), CURDATE(8), REFDATE(8), &
                                 MAP(NX+1,NY), MP2(NX+1,NY)
!
!/NC4    INTEGER                  :: DEFLATE=1
!/S      INTEGER, SAVE           :: IENT   =   0
!
      INTEGER, ALLOCATABLE    :: TRIGP2(:,:)
      ! Make the below allocatable to avoid stack overflow on some machines 
      INTEGER(KIND=2), ALLOCATABLE    :: MX1(:,:), MXX(:,:), MYY(:,:), &
                                         MXY(:,:), MAPOUT(:,:)
!
      REAL                    :: CABS, UABS, MFILLR
!/BT4   REAL, PARAMETER            :: LOG2=LOG(2.)
!
      REAL,DIMENSION(:),  ALLOCATABLE    :: LON, LAT, FREQ
      REAL,DIMENSION(:,:),  ALLOCATABLE  :: LON2D, LAT2D, ANGLD2D
!/RTD      REAL,DIMENSION(:,:),  ALLOCATABLE  :: LON2DEQ, LAT2DEQ
      ! Make the below allocatable to avoid stack overflow on some machines 
      REAL, ALLOCATABLE       :: X1(:,:), X2(:,:), XX(:,:), XY(:,:),   &
                                 XK(:,:,:), XXK(:,:,:), XYK(:,:,:),    & 
                                 MX1R(:,:), MXXR(:,:), MYYR(:,:),      &
                                 MXYR(:,:), AUX1(:)
!
      DOUBLE PRECISION        :: OUTJULDAY
      DOUBLE PRECISION        :: SXD, SYD, X0D, Y0D
!      
      CHARACTER*120           :: STR2
      CHARACTER*512           :: PARTCOM
      !CHARACTER*30            :: UNITVAR(3),FORMAT1
      CHARACTER*30            :: FORMAT1
      CHARACTER*30            :: STRSTARTDATE
      CHARACTER               :: FNAMENC*50,                           &
                                 FORMF*11
      CHARACTER, SAVE         :: OLDTIMEID*16 = '0000000000000000'
      CHARACTER, SAVE         :: TIMEID*16 = '0000000000000000'
!
      LOGICAL                 :: FLFRQ, FLDIR, FEXIST, FREMOVE
      LOGICAL                 :: CUSTOMFRQ=.FALSE.
!/T      LOGICAL                 :: LTEMP(NGRPP)
!/RTD ! RTDL == False for a standard lat-lon grid. Will be set to True if the
!/RTD ! grid is rotated
!/RTD      LOGICAL                 :: RTDL = .FALSE.

      TYPE(META_T)            :: META(3)
      !TYPE(META_T)            :: META
!/
!/ ------------------------------------------------------------------- /
!/
!
!/S      CALL STRACE (IENT, 'W3EXNC')
!
!/RTD ! Is the grid really rotated
!/RTD      IF ( Polat < 90. ) RTDL = .True.
!/RTD !
!/T      DO IFI=1, NOGRP 
!/T        LTEMP  = FLG2D(IFI,:)
!/T        WRITE (NDST,9000) IFI, LTEMP
!/T        END DO
!/T      WRITE (NDST,9001) NCTYPE, IX1, IXN, IY1, IYN, VECTOR
!
!--- - - - - - - - - - - - - - - - - - - - - - - - - - - - - - - - - -
! 1.  Preparations
!
      ! Allocate output storage. This is required with the introduction
      ! of the SMC grid output as the regridded output grid dimensions could
      ! conceivably be larger than the NX and NY values. Making these (large)
      ! arrays allocatable also moves them to the heap and avoids stack
      ! overflow issues that can occur on some architectures. (Chris Bunney)
      IF(SMCGRD) THEN
!/SMC        ALLOCATE(X1(NXO,NYO), X2(NXO,NYO), XX(NXO,NYO), XY(NXO,NYO))
!/SMC        ALLOCATE(XK(NXO,NYO,NK), XXK(NXO,NYO,NK), XYK(NXO,NYO,NK))
!/SMC
!/SMC        ALLOCATE(MX1(NXO,NYO), MXX(NXO,NYO), MYY(NXO,NYO),               &
!/SMC                 MXY(NXO,NYO), MAPOUT(NXO,NYO))
!/SMC        ALLOCATE(MX1R(NXO,NYO), MXXR(NXO,NYO), MYYR(NXO,NYO), MXYR(NXO,NYO))
      ELSE
        ALLOCATE(X1(NX+1,NY),X2(NX+1,NY),XX(NX+1,NY),XY(NX+1,NY))
        ALLOCATE(XK(NX+1,NY,NK), XXK(NX+1,NY,NK), XYK(NX+1,NY,NK))
        ALLOCATE(MX1(NX,NY), MXX(NX,NY), MYY(NX,NY), MXY(NX,NY), MAPOUT(NX,NY))
        ALLOCATE(MX1R(NX,NY), MXXR(NX,NY), MYYR(NX,NY), MXYR(NX,NY))
      ENDIF ! SMCGRD
      ALLOCATE(AUX1(NSEA))

      X1     = UNDEF
      X2     = UNDEF
      XX     = UNDEF
      XY     = UNDEF
      ! CB: Dont output MAPSTA for SMC grid - it does not make sense
      IF( SMCGRD ) THEN
        MAPSTAOUT = 0
      ELSE
        MAPSTAOUT = 1
      ENDIF
      NCVARTYPE  = NCVARTYPEI
      NDSDAT=30
      NCID = 0
!
!
      CALL U2D('days since 1990-01-01 00:00:00',REFDATE,IERR)

! 1.1 Set-up transfer files
      MFILL  = NF90_FILL_SHORT
      MFILLR  = NF90_FILL_FLOAT
      IF (GTYPE.NE.UNGTYPE) THEN
        COORDTYPE=1
      ELSE
        COORDTYPE=2
      ENDIF

! 1.2 Sets the date as ISO8601 convention 
      ! S3 defines the number of characters in the date for the filename
      ! S3=0 -> field, S3=4-> YYYY, S3=6 -> YYYYMM, S3=10 -> YYYYMMDDHH
      ! Setups min and max date format
      IF (S3.GT.0 .AND. S3.LT.4) S3=4 
      IF (S3.GT.10) S3=10 
!
      ! Defines the format of FILETIME
      S5=S3-8
      S4=S3
      OLDTIMEID=TIMEID
      ! if S3=>nodate then filetime='field'
      IF (S3.EQ.0) THEN
        S4=5
        TIMEID="field"
      ! if S3=>YYYYMMDDHH then filetime='YYYYMMDDTHHZ'
      ELSE IF (S3.EQ.10) THEN 
        S4=S4+2 ! add chars for ISO8601 : day T hours Z
        WRITE(FORMAT1,'(A,I1,A,I1,A)') '(I8.8,A1,I',S5,'.',S5,',A1)'
        WRITE (TIMEID,FORMAT1) TIME(1), 'T', &
               FLOOR(REAL(TIME(2))/NINT(10.**(6-S5))), 'Z'
      ! if S3=>YYYYMMDD then filetime='YYYYMMDD'
      ELSE IF (S3.EQ.8) THEN
        WRITE(FORMAT1,'(A,I1,A,I1,A)') '(I',S3,'.',S3,')'
        WRITE (TIMEID,FORMAT1) TIME(1)
      ! if S3=>YYYYMM then filetime='YYYYMM'
      ! or S3=>YYYY then filetime='YYYY'
      ELSE 
        WRITE(FORMAT1,'(A,I1,A,I1,A)') '(I',S3,'.',S3,')'
        WRITE (TIMEID,FORMAT1) FLOOR(REAL(TIME(1))/NINT(10.**(8-S3)))
      END IF       
      ! redefines filename with updated date format
      S1=LEN_TRIM(FILEPREFIX)
      FNAMENC=''
      FNAMENC(1:S1)=FILEPREFIX(1:S1)
      FNAMENC(S1+1:S1+S4) = TIMEID(1:S4)

      !

!/SMC!
!/SMC!---  Update MAPSMC for SMC type 2 output. This needs to be
!/SMC!     done at each timestep as MAPSTA could change if there
!/SMC!     are water level or ice input chagnes.
!/SMC!
!/SMC      IF(SMCTYPE .EQ. 2) CALL MAPSTA_SMC()
!
!--- - - - - - - - - - - - - - - - - - - - - - - - - - - - - - - - - -
! 2.  Loop over output fields.
!

      ! Instanciates the field and group indexes
      I1=0
      J1=0
!
      DO IFI=1, NOGRP
        DO IFJ=1, NGRPP
          ! If the flag for the variable IFI of the group IFJ is .TRUE.
          IF ( FLG2D(IFI,IFJ) ) THEN
            ! Instanciates the partition array
            INDEXIPART=1
            IPART=TABIPART(INDEXIPART)
            NFIELD=1 ! Default is one field


!  Loop over IPART for partition variables
555         CONTINUE

            ! Initializes the index of field and group at the first flag FLG2D at .TRUE.
            IF (I1.EQ.0) I1=IFI
            IF (J1.EQ.0) J1=IFJ
            FORMF  = '(1X,32I5)'
!/T            WRITE (NDST,9020) IDOUT(IFI,IFJ)
!
! 2.1 Set output arrays and parameters
!
            ! Initializes the flags for freq and direction dimensions
            FLFRQ = .FALSE.
            FLDIR = .FALSE.
            IF (NCVARTYPEI.EQ.3) NCVARTYPE=2
!
            ! Depth
            IF ( IFI .EQ. 1 .AND. IFJ .EQ. 1 ) THEN
              IF( SMCGRD ) THEN
!/SMC                 CALL W3S2XY_SMC( DW(1:NSEA), X1 )
              ELSE ! IF(SMCGRD)
                 CALL W3S2XY ( NSEA, NSEA, NX+1, NY, DW(1:NSEA)     &
                                                            , MAPSF, X1 )
              ENDIF

            ! Surface current
            ELSE IF ( IFI .EQ. 1 .AND. IFJ .EQ. 2 ) THEN
              !! Note - CX and CY read in from .ww3 file are X-Y vectors
!/RTD              ! Rotate x,y vector back to standard pole
!/RTD              IF ( FLAGUNR ) CALL W3XYRTN(NSEA, CX(1:NSEA), CY(1:NSEA), AnglD)
!
              IF( .NOT. VECTOR ) THEN
                CALL UV_TO_MAG_DIR(CX(1:NSEA), CY(1:NSEA), NSEA,       &
                                   TOLERANCE=0.05, CONV='O')
              ENDIF
!
              IF( SMCGRD ) THEN
!/SMC                 CALL W3S2XY_SMC( CX(1:NSEA), XX )
!/SMC                 CALL W3S2XY_SMC( CY(1:NSEA), XY )
              ELSE
                 CALL W3S2XY ( NSEA, NSEA, NX+1, NY, CX(1:NSEA)        &
                                                        , MAPSF, XX )
                 CALL W3S2XY ( NSEA, NSEA, NX+1, NY, CY(1:NSEA)        &
                                                        , MAPSF, XY )
              ENDIF
              NFIELD=2
!
            ! Wind
            ELSE IF ( IFI .EQ. 1 .AND. IFJ .EQ. 3 ) THEN
              !! Note - UA and UD read in from .ww3 file are UX,UY
!/RTD              ! Rotate x,y vector back to standard pole
!/RTD              IF ( FLAGUNR ) CALL W3XYRTN(NSEA, UA(1:NSEA), UD(1:NSEA), AnglD)
!             
              IF( .NOT. VECTOR ) THEN
                CALL UV_TO_MAG_DIR(UA(1:NSEA), UD(1:NSEA), NSEA,       &
                                 TOLERANCE=1.0, CONV='N')
              ENDIF
!              
              IF( SMCGRD ) THEN
!/SMC                 CALL W3S2XY_SMC( UA(1:NSEA), XX )
!/SMC                 CALL W3S2XY_SMC( UD(1:NSEA), XY )
              ELSE ! IF(SMCGRD)
                 CALL W3S2XY ( NSEA, NSEA, NX+1, NY, UA(1:NSEA)        &
                                                        , MAPSF, XX )
                 CALL W3S2XY ( NSEA, NSEA, NX+1, NY, UD(1:NSEA)        &
                                                        , MAPSF, XY )
              ENDIF
              NFIELD=2
!
            ! Air-sea temperature difference
            ELSE IF ( IFI .EQ. 1 .AND. IFJ .EQ. 4 ) THEN
              IF( SMCGRD ) THEN
!/SMC                 CALL W3S2XY_SMC(AS(1:NSEA), X1)
              ELSE ! IF(SMCGRD)
                 CALL W3S2XY ( NSEA, NSEA, NX+1, NY, AS(1:NSEA)        &
                                                        , MAPSF, X1 )
              ENDIF
!
            ! Sea surface height above sea level
            ELSE IF ( IFI .EQ. 1 .AND. IFJ .EQ. 5 ) THEN
              IF( SMCGRD ) THEN
!/SMC                 CALL W3S2XY_SMC(WLV, X1)
              ELSE ! IF(SMCGRD)
                 CALL W3S2XY ( NSEA, NSEA, NX+1, NY, WLV   , MAPSF, X1 )
              ENDIF
!
            ! Sea ice area fraction
            ELSE IF ( IFI .EQ. 1 .AND. IFJ .EQ. 6 ) THEN
              IF( SMCGRD ) THEN
!/SMC                 CALL W3S2XY_SMC(ICE, X1)
              ELSE
                CALL W3S2XY ( NSEA, NSEA, NX+1, NY, ICE(1:NSEA), MAPSF, X1 )
              ENDIF

            ! Icebergs_damping
            ELSE IF ( IFI .EQ. 1 .AND. IFJ .EQ. 7 ) THEN
              IF( SMCGRD ) THEN
!/SMC                 CALL W3S2XY_SMC(BERG, X1)
              ELSE
                 CALL W3S2XY ( NSEA, NSEA, NX+1, NY, BERG   , MAPSF, X1 )
              ENDIF
              WHERE ( X1.NE.UNDEF) X1 = X1*0.1
!
!/BT4 ! Krumbein phi scale
!/BT4 ELSE IF ( IFI .EQ. 1 .AND. IFJ .EQ. 8 ) THEN
!/BT4              CALL W3S2XY ( NSEA, NSEA, NX+1, NY, SED_D50   , MAPSF, X1 )
!/BT4              WHERE ( X1.NE.UNDEF) X1 = -LOG(X1/0.001)/LOG2    
!/BT4              NFIELD=1
!
!/IS2 ! Ice thickness
!/IS2 ELSE IF (IFI .EQ. 1 .AND. IFJ .EQ. 9 ) THEN
!/IS2              CALL W3S2XY (NSEA, NSEA, NX+1, NY, ICEH(1:NSEA), MAPSF, X1 )
!/IS2              NFIELD=1
!
!/IS2 ! Maximum ice floe diameter
!/IS2 ELSE IF (IFI .EQ. 1 .AND. IFJ .EQ. 10 ) THEN
!/IS2              CALL W3S2XY (NSEA, NSEA, NX+1, NY, ICEF(1:NSEA), MAPSF, X1 )
!/IS2              NFIELD=1

            ! Significant wave height
            ELSE IF ( IFI .EQ. 2 .AND. IFJ .EQ. 1 ) THEN
              IF (NCVARTYPEI.EQ.3) NCVARTYPE=2
              IF( SMCGRD ) THEN
!/SMC                 CALL W3S2XY_SMC( HS, X1 )
              ELSE
                 CALL W3S2XY ( NSEA, NSEA, NX+1, NY, HS    , MAPSF, X1 )
              ENDIF

            ! Mean wave length
            ELSE IF ( IFI .EQ. 2 .AND. IFJ .EQ. 2 ) THEN
              IF( SMCGRD ) THEN
!/SMC                 CALL W3S2XY_SMC(WLM, X1 )
              ELSE
                 CALL W3S2XY ( NSEA, NSEA, NX+1, NY, WLM, MAPSF, X1 )
              ENDIF
!
            ! Mean period T02
            ELSE IF ( IFI .EQ. 2 .AND. IFJ .EQ. 3 ) THEN
              IF( SMCGRD ) THEN
!/SMC                 CALL W3S2XY_SMC( T02, X1 )
              ELSE
                 CALL W3S2XY ( NSEA, NSEA, NX+1, NY, T02, MAPSF, X1 )
              ENDIF
!
            ! Mean period T0m1
            ELSE IF ( IFI .EQ. 2 .AND. IFJ .EQ. 4 ) THEN
              IF( SMCGRD ) THEN
!/SMC                CALL W3S2XY_SMC( T0M1, X1 )
              ELSE
                 CALL W3S2XY ( NSEA, NSEA, NX+1, NY, T0M1, MAPSF, X1 )
              ENDIF
!
            ! Mean period T01
            ELSE IF ( IFI .EQ. 2 .AND. IFJ .EQ. 5 ) THEN
              IF( SMCGRD ) THEN
!/SMC                CALL W3S2XY_SMC( T01, X1 )
              ELSE
                 CALL W3S2XY ( NSEA, NSEA, NX+1, NY, T01   , MAPSF, X1 )
              ENDIF
!
            ! Wave peak frequency
            ELSE IF ( IFI .EQ. 2 .AND. IFJ .EQ. 6 ) THEN
              IF( SMCGRD ) THEN
!/SMC                CALL W3S2XY_SMC(FP0, X1)
              ELSE
                 CALL W3S2XY ( NSEA, NSEA, NX+1, NY, FP0   , MAPSF, X1 )
              ENDIF
!
            ! Wave mean direction
            ELSE IF ( IFI .EQ. 2 .AND. IFJ .EQ. 7 ) THEN
!/RTD              ! Rotate direction back to standard pole
!/RTD              IF ( FLAGUNR ) CALL W3THRTN(NSEA, THM, AnglD, .FALSE.)
              IF( SMCGRD ) THEN
!/SMC                CALL W3S2XY_SMC( THM, X1, .TRUE. )
              ELSE
                 DO ISEA=1, NSEA
                   IF ( THM(ISEA) .NE. UNDEF )  THEN
                     THM(ISEA) = MOD ( 630. - RADE*THM(ISEA) , 360. )
                     END IF
                   END DO
                 CALL W3S2XY ( NSEA, NSEA, NX+1, NY, THM, MAPSF, X1 )
              ENDIF
!
            ! Directional spread
            ELSE IF ( IFI .EQ. 2 .AND. IFJ .EQ. 8 ) THEN
              IF( SMCGRD ) THEN
!/SMC                CALL W3S2XY_SMC( THS, X1 )
              ELSE
                 CALL W3S2XY ( NSEA, NSEA, NX+1, NY, THS   , MAPSF, X1 )
              ENDIF
!
            ! Peak direction
            ELSE IF ( IFI .EQ. 2 .AND. IFJ .EQ. 9 ) THEN
!/RTD              ! Rotate direction back to standard pole
!/RTD              IF ( FLAGUNR ) CALL W3THRTN(NSEA, THP0, AnglD, .FALSE.)
              IF( SMCGRD ) THEN
!/SMC                CALL W3S2XY_SMC( THP0, X1, .TRUE. )
              ELSE
                 DO ISEA=1, NSEA
                   IF ( THP0(ISEA) .NE. UNDEF ) THEN
                     THP0(ISEA) = MOD ( 630-RADE*THP0(ISEA) , 360. )
                     END IF
                   END DO
                 CALL W3S2XY ( NSEA, NSEA, NX+1, NY, THP0  , MAPSF, X1 )
              ENDIF
!
            ! Infragravity wave height
            ELSE IF ( IFI .EQ. 2 .AND. IFJ .EQ. 10 ) THEN
              IF( SMCGRD ) THEN
!/SMC                CALL W3S2XY_SMC( HSIG, X1 )
              ELSE
                 CALL W3S2XY ( NSEA, NSEA, NX+1, NY, HSIG, MAPSF, X1 )
              ENDIF
!
            ! Expected maximum sea surface elevation
            ELSE IF ( IFI .EQ. 2 .AND. IFJ .EQ. 11 ) THEN
              IF( SMCGRD ) THEN
!/SMC                CALL W3S2XY_SMC( STMAXE, X1 )
              ELSE
                 CALL W3S2XY ( NSEA, NSEA, NX+1, NY, STMAXE, MAPSF, X1 )
              ENDIF
!
            ! Standard deviation of maximum sea surface elevation
            ELSE IF ( IFI .EQ. 2 .AND. IFJ .EQ. 12 ) THEN
              IF( SMCGRD ) THEN
!/SMC                CALL W3S2XY_SMC( STMAXD, X1 )
              ELSE
                 CALL W3S2XY ( NSEA, NSEA, NX+1, NY, STMAXD, MAPSF, X1 )
              ENDIF
!
            ! Expected maximum wave height 
            ELSE IF ( IFI .EQ. 2 .AND. IFJ .EQ. 13 ) THEN
              IF( SMCGRD ) THEN
!/SMC                CALL W3S2XY_SMC( HMAXE, X1 )
              ELSE
                 CALL W3S2XY ( NSEA, NSEA, NX+1, NY, HMAXE, MAPSF, X1 )
              ENDIF
!
            ! Expected maximum wave height from crest
            ELSE IF ( IFI .EQ. 2 .AND. IFJ .EQ. 14 ) THEN
              IF( SMCGRD ) THEN
!/SMC                CALL W3S2XY_SMC( HCMAXE, X1 )
              ELSE
                 CALL W3S2XY ( NSEA, NSEA, NX+1, NY, HCMAXE, MAPSF, X1 )
              ENDIF
!
            ! STD of maximum wave height
            ELSE IF ( IFI .EQ. 2 .AND. IFJ .EQ. 15 ) THEN
              IF( SMCGRD ) THEN
!/SMC                CALL W3S2XY_SMC( HMAXD, X1 )
              ELSE
                 CALL W3S2XY ( NSEA, NSEA, NX+1, NY, HMAXD, MAPSF, X1 )
              ENDIF
!
            ! STD of maximum wave height from crest
            ELSE IF ( IFI .EQ. 2 .AND. IFJ .EQ. 16 ) THEN
              IF( SMCGRD ) THEN
!/SMC                CALL W3S2XY_SMC( HCMAXD, X1 )
              ELSE
                 CALL W3S2XY ( NSEA, NSEA, NX+1, NY, HCMAXD, MAPSF, X1 )
              ENDIF
!
            ! Dominant wave breaking probability
            ELSE IF ( IFI .EQ. 2 .AND. IFJ .EQ. 17 ) THEN
              IF( SMCGRD ) THEN
!/SMC                CALL W3S2XY_SMC( WBT, X1 )
              ELSE
                 CALL W3S2XY ( NSEA, NSEA, NX+1, NY, WBT, MAPSF, X1 )
              END IF
!
            ! Wave peak period (derived from peak freq field)
            ELSE IF ( IFI .EQ. 2 .AND. IFJ .EQ. 18 ) THEN
              DO I=1,NSEA
                IF(FP0(I) .NE. UNDEF) THEN
                  AUX1(I) = 1.0 / FP0(I)
                ELSE
                  AUX1(I) = UNDEF
                ENDIF
              ENDDO
              IF( SMCGRD ) THEN
!/SMC                CALL W3S2XY_SMC(AUX1, X1)
              ELSE
                 CALL W3S2XY ( NSEA, NSEA, NX+1, NY, AUX1, MAPSF, X1 )
              ENDIF
!
            ! Wave elevation spectrum
            ELSE IF ( IFI .EQ. 3 .AND. IFJ .EQ. 1 ) THEN
              ! Information for spectral
              FLFRQ  = .TRUE.
              I1F=E3DF(2,1)
              I2F=E3DF(3,1)
              DO IK=I1F,I2F
                IF( SMCGRD ) THEN
!/SMC                  CALL W3S2XY_SMC( EF(:,IK), XX )
                ELSE
                   CALL W3S2XY ( NSEA, NSEA, NX+1,NY,EF(:,IK),MAPSF, XX )
                ENDIF
                IF (NCVARTYPE.EQ.2) WHERE ( XX.GE.0.) XX = ALOG10(XX+1E-12)
                XK(:,:,IK)=XX
                END DO
!
            ! Mean wave direction frequency spectrum
            ELSE IF ( IFI .EQ. 3 .AND. IFJ .EQ. 2 ) THEN
              ! Information for spectral
              FLFRQ  = .TRUE.
              I1F=E3DF(2,2)
              I2F=E3DF(3,2)
              DO IK=I1F,I2F
!/RTD                ! Rotate direction back to standard pole
!/RTD                IF ( FLAGUNR ) CALL W3THRTN(NSEA, TH1M(:,IK), AnglD, .FALSE.)
                IF( SMCGRD ) THEN
!/SMC                   CALL W3S2XY_SMC( TH1M(:,IK), XX )
                ELSE
                   CALL W3S2XY ( NSEA, NSEA, NX+1,NY,TH1M(:,IK),MAPSF, XX )
                ENDIF
                XK(:,:,IK)=XX
                END DO
!
            ! Spreading frequency spectrum
            ELSE IF ( IFI .EQ. 3 .AND. IFJ .EQ. 3 ) THEN
              ! Information for spectral
              FLFRQ  = .TRUE.
              I1F=E3DF(2,3)
              I2F=E3DF(3,3)
              DO IK=I1F,I2F
                IF( SMCGRD ) THEN
!/SMC                   CALL  W3S2XY_SMC( STH1M(:,IK), XX )
                ELSE
                   CALL W3S2XY ( NSEA, NSEA, NX+1,NY,STH1M(:,IK),MAPSF, XX )
                ENDIF
                XK(:,:,IK)=XX
                END DO
!
            ! Second mean wave direction frequency spectrum
            ELSE IF ( IFI .EQ. 3 .AND. IFJ .EQ. 4 ) THEN
              ! Information for spectral
              FLFRQ  = .TRUE.
              I1F=E3DF(2,4)
              I2F=E3DF(3,4)
              DO IK=I1F,I2F
!/RTD                ! Rotate direction back to standard pole
!/RTD                IF ( FLAGUNR ) CALL W3THRTN(NSEA, TH2M(:,IK), AnglD, .FALSE.)
                IF( SMCGRD ) THEN
!/SMC                  CALL W3S2XY_SMC( TH2M(:,IK), XX )
                ELSE
                   CALL W3S2XY ( NSEA, NSEA, NX+1,NY,TH2M(:,IK),MAPSF, XX )
                ENDIF
                XK(:,:,IK)=XX
                END DO
!
            ! Second spreading frequency spectrum
            ELSE IF ( IFI .EQ. 3 .AND. IFJ .EQ. 5 ) THEN
              ! Information for spectral
              FLFRQ  = .TRUE.
              I1F=E3DF(2,5)
              I2F=E3DF(3,5)
              DO IK=I1F,I2F
                IF( SMCGRD ) THEN
!/SMC                  CALL W3S2XY_SMC( STH2M(:,IK), XX )
                ELSE
                   CALL W3S2XY ( NSEA, NSEA, NX+1,NY,STH2M(:,IK),MAPSF, XX )
                ENDIF
                XK(:,:,IK)=XX
                END DO
!
            ! Wave numbers
            ELSE IF ( IFI .EQ. 3 .AND. IFJ .EQ. 6 ) THEN
              ! Information for spectral
              FLFRQ  = .TRUE.
              I1F=1
              I2F=NK
              DO IK=1,NK 
                IF( SMCGRD ) THEN
!/SMC                  CALL W3S2XY_SMC( WN(IK,:), XX )
                ELSE
                   CALL W3S2XY ( NSEA, NSEA, NX+1, NY, WN(IK,:), MAPSF, XX )
                ENDIF
                XK(:,:,IK)=XX
              END DO
!
            ! Partition wave significant height
            ELSE IF ( IFI .EQ. 4 .AND. IFJ .EQ. 1 ) THEN
              IF( SMCGRD ) THEN
!/SMC                 CALL W3S2XY_SMC( PHS(:,IPART), X1 )
              ELSE
                CALL W3S2XY ( NSEA, NSEA, NX+1, NY, PHS(:,IPART), MAPSF, X1 )
              ENDIF
!
            ! Partition peak period
            ELSE IF ( IFI .EQ. 4 .AND. IFJ .EQ. 2 ) THEN
              IF( SMCGRD ) THEN
!/SMC                 CALL W3S2XY_SMC( PTP(:,IPART), X1 )
              ELSE
                CALL W3S2XY ( NSEA, NSEA, NX+1, NY, PTP(:,IPART), MAPSF, X1 )
              ENDIF

            ! Partition peak wave length
            ELSE IF ( IFI .EQ. 4 .AND. IFJ .EQ. 3 ) THEN
              IF( SMCGRD ) THEN
!/SMC                CALL W3S2XY_SMC( PLP(:,IPART), X1 )
              ELSE
                CALL W3S2XY ( NSEA, NSEA, NX+1, NY, PLP(:,IPART), MAPSF, X1 )
              ENDIF
!
            ! Partition wave mean direction
            ELSE IF ( IFI .EQ. 4 .AND. IFJ .EQ. 4 ) THEN
!/RTD                ! Rotate direction back to standard pole
!/RTD                IF ( FLAGUNR ) CALL W3THRTN(NSEA, PDIR(:,IPART), AnglD, .FALSE.)
              IF( SMCGRD ) THEN
!/SMC                CALL W3S2XY_SMC( PDIR(:,IPART), X1, .TRUE. )
              ELSE
                DO ISEA=1, NSEA
                  IF ( PDIR(ISEA,IPART) .NE. UNDEF ) THEN
                     PDIR(ISEA,IPART) = MOD ( 630-RADE*PDIR(ISEA,IPART) , 360. )
                  END IF
                END DO
                CALL W3S2XY ( NSEA, NSEA, NX+1, NY, PDIR(:,IPART), MAPSF, X1 )
              ENDIF
!
            ! Partition directional spread
            ELSE IF ( IFI .EQ. 4 .AND. IFJ .EQ. 5 ) THEN
              IF( SMCGRD ) THEN
!/SMC                CALL W3S2XY_SMC( PSI(:,IPART), X1 )
              ELSE
                CALL W3S2XY ( NSEA, NSEA, NX+1, NY, PSI(:,IPART), MAPSF, X1 )
              ENDIF

            ! Partition wind sea fraction
            ELSE IF ( IFI .EQ. 4 .AND. IFJ .EQ. 6 ) THEN
              IF( SMCGRD ) THEN
!/SMC                CALL W3S2XY_SMC( PWS(:,IPART), X1 )
              ELSE
                CALL W3S2XY ( NSEA, NSEA, NX+1, NY, PWS(:,IPART), MAPSF, X1 )
              ENDIF
!
            ! Partition peak direction
            ELSE IF ( IFI .EQ. 4 .AND. IFJ .EQ. 7 ) THEN
!/RTD                ! Rotate direction back to standard pole
!/RTD                IF ( FLAGUNR ) CALL W3THRTN(NSEA, PTHP0(:,IPART), AnglD, .FALSE.)
              IF( SMCGRD ) THEN
!/SMC                CALL W3S2XY_SMC( PTHP0(:,IPART), X1, .TRUE. )
              ELSE
                DO ISEA=1, NSEA
                  IF ( PTHP0(ISEA,IPART) .NE. UNDEF ) THEN
                    PTHP0(ISEA,IPART) = MOD ( 630-RADE*PTHP0(ISEA,IPART) , 360. )
                    END IF
                  END DO
                CALL W3S2XY ( NSEA, NSEA, NX+1, NY, PTHP0(:,IPART), MAPSF, X1 )
              END IF
!
            ! Partition peakedness
            ELSE IF ( IFI .EQ. 4 .AND. IFJ .EQ. 8 ) THEN
              IF( SMCGRD ) THEN
!/SMC                 CALL W3S2XY_SMC( PQP(:,IPART), X1 )
              ELSE
                CALL W3S2XY ( NSEA, NSEA, NX+1, NY, PQP(:,IPART), MAPSF, X1 )
              ENDIF
!
            ! Partition peak enhancement factor
            ELSE IF ( IFI .EQ. 4 .AND. IFJ .EQ. 9 ) THEN
              IF( SMCGRD ) THEN
!/SMC                 CALL W3S2XY_SMC( PPE(:,IPART), X1 )
              ELSE
                CALL W3S2XY ( NSEA, NSEA, NX+1, NY, PPE(:,IPART), MAPSF, X1 )
              ENDIF
!
            ! Partition frequency width
            ELSE IF ( IFI .EQ. 4 .AND. IFJ .EQ. 10 ) THEN
              IF( SMCGRD ) THEN
!/SMC                 CALL W3S2XY_SMC( PGW(:,IPART), X1 )
              ELSE
                CALL W3S2XY ( NSEA, NSEA, NX+1, NY, PGW(:,IPART), MAPSF, X1 )
              ENDIF
!
            ! Partition spectral width
            ELSE IF ( IFI .EQ. 4 .AND. IFJ .EQ. 11 ) THEN
              IF( SMCGRD ) THEN
!/SMC                 CALL W3S2XY_SMC( PSW(:,IPART), X1 )
              ELSE
                CALL W3S2XY ( NSEA, NSEA, NX+1, NY, PSW(:,IPART), MAPSF, X1 )
              ENDIF
!
            ! Partition mean period Tm10
            ELSE IF ( IFI .EQ. 4 .AND. IFJ .EQ. 12 ) THEN
              IF( SMCGRD ) THEN
!/SMC                 CALL W3S2XY_SMC( PTM1(:,IPART), X1 )
              ELSE
                CALL W3S2XY ( NSEA, NSEA, NX+1, NY, PTM1(:,IPART), MAPSF, X1 )
              ENDIF
!
            ! Partition mean period T01
            ELSE IF ( IFI .EQ. 4 .AND. IFJ .EQ. 13 ) THEN
              IF( SMCGRD ) THEN
!/SMC                 CALL W3S2XY_SMC( PT1(:,IPART), X1 )
              ELSE
                CALL W3S2XY ( NSEA, NSEA, NX+1, NY, PT1(:,IPART), MAPSF, X1 )
              ENDIF
!
            ! Partition mean period T02
            ELSE IF ( IFI .EQ. 4 .AND. IFJ .EQ. 14 ) THEN
              IF( SMCGRD ) THEN
!/SMC                 CALL W3S2XY_SMC( PT2(:,IPART), X1 )
              ELSE
                CALL W3S2XY ( NSEA, NSEA, NX+1, NY, PT2(:,IPART), MAPSF, X1 )
              ENDIF
!
            ! Partition energy at peak frequency
            ELSE IF ( IFI .EQ. 4 .AND. IFJ .EQ. 15 ) THEN
              IF( SMCGRD ) THEN
!/SMC                 CALL W3S2XY_SMC( PEP(:,IPART), X1 )
              ELSE
                CALL W3S2XY ( NSEA, NSEA, NX+1, NY, PEP(:,IPART), MAPSF, X1 )
              ENDIF
              NFIELD=1
!
            ! Partition wind sea fraction
            ELSE IF ( IFI .EQ. 4 .AND. IFJ .EQ. 16 ) THEN
              IF( SMCGRD ) THEN
!/SMC                CALL W3S2XY_SMC( PWST(:), X1 )
              ELSE
                CALL W3S2XY ( NSEA, NSEA, NX+1, NY, PWST(:), MAPSF, X1 )
              ENDIF
!
            ! Number of wave partitions
            ELSE IF ( IFI .EQ. 4 .AND. IFJ .EQ. 17 ) THEN
              IF( SMCGRD ) THEN
!/SMC                CALL W3S2XY_SMC( PNR(:), X1 )
              ELSE
                CALL W3S2XY ( NSEA, NSEA, NX+1, NY, PNR(:), MAPSF, X1 )
              ENDIF
!
            ! Friction velocity
            ELSE IF ( IFI .EQ. 5 .AND. IFJ .EQ. 1 ) THEN
              !! Note - UST and USTDIR read in from .ww3 file are X-Y vectors
              DO ISEA=1, NSEA
                UABS   = SQRT(UST(ISEA)**2+USTDIR(ISEA)**2)
                 IF (UABS.GE.10.) THEN
                  UST(ISEA)=UNDEF
                  USTDIR(ISEA)=UNDEF
                  END IF
                 END DO
!/RTD              ! Rotate x,y vector back to standard pole
!/RTD              IF ( FLAGUNR ) CALL W3XYRTN(NSEA, UST(1:NSEA), USTDIR(1:NSEA), AnglD)
              IF( SMCGRD ) THEN
!/SMC                CALL W3S2XY_SMC( UST(1:NSEA), XX )
!/SMC                CALL W3S2XY_SMC( USTDIR(1:NSEA), XY )
              ELSE
                CALL W3S2XY (NSEA,NSEA,NX+1,NY, UST   (1:NSEA), MAPSF, XX )
                CALL W3S2XY (NSEA,NSEA,NX+1,NY, USTDIR(1:NSEA), MAPSF, XY )
              ENDIF ! SMCGRD
              !! Commented out unnecessary statements below for time being
              !! UST,USTDIR are in north-east convention and X1,X2
              !! are not actually written out below
              !DO ISEA=1, NSEA
              !  UABS   = SQRT(UST(ISEA)**2+USTDIR(ISEA)**2)
              !  IF ( UST(ISEA) .EQ. UNDEF ) THEN
              !      USTDIR(ISEA) = UNDEF
              !      UABS         = UNDEF
              !    ELSE IF ( UABS .GT. 0.05 ) THEN
              !      USTDIR(ISEA) = MOD ( 630. -                     &
              !        RADE*ATAN2(USTDIR(ISEA),UST(ISEA)) , 360. )
              !    ELSE
              !      USTDIR(ISEA) = UNDEF
              !    END IF
              !  UST(ISEA) = UABS
              !  END DO
              !CALL W3S2XY (NSEA,NSEA,NX+1,NY, UST   (1:NSEA) , MAPSF, X1 )
              !CALL W3S2XY (NSEA,NSEA,NX+1,NY, USTDIR(1:NSEA) , MAPSF, X2 )
              NFIELD=2
!
            ! Charnock coefficient
            ELSE IF ( IFI .EQ. 5 .AND. IFJ .EQ. 2 ) THEN
              IF( SMCGRD ) THEN
!/SMC                CALL W3S2XY_SMC( CHARN(1:NSEA), X1 )
              ELSE
                CALL W3S2XY ( NSEA, NSEA, NX+1, NY, CHARN(1:NSEA), MAPSF, X1 )
              ENDIF ! SMCGRD
!
            ! Wave energy flux
            ELSE IF ( IFI .EQ. 5 .AND. IFJ .EQ. 3 ) THEN
              CGE=CGE*0.001  ! from W / m to kW / m 
              IF( SMCGRD ) THEN
!/SMC                CALL W3S2XY_SMC( CGE(1:NSEA), X1 )
              ELSE
                CALL W3S2XY ( NSEA, NSEA, NX+1, NY, CGE(1:NSEA), MAPSF, X1 )
              ENDIF ! SMCGRD
!
            ! Wind to wave energy flux
            ELSE IF ( IFI .EQ. 5 .AND. IFJ .EQ. 4 ) THEN
              IF (NCVARTYPEI.EQ.3) NCVARTYPE=4
              IF( SMCGRD ) THEN
!/SMC                CALL W3S2XY_SMC( PHIAW(1:NSEA), X1 )
              ELSE
                CALL W3S2XY ( NSEA, NSEA, NX+1, NY, PHIAW(1:NSEA) , MAPSF, X1 )
              ENDIF ! SMCGRD
!
            ! Wave supported wind stress
            ELSE IF ( IFI .EQ. 5 .AND. IFJ .EQ. 5 ) THEN
!/RTD              ! Rotate x,y vector back to standard pole
!/RTD              IF ( FLAGUNR ) CALL W3XYRTN(NSEA, TAUWIX(1:NSEA), TAUWIY(1:NSEA), AnglD)
              IF( SMCGRD ) THEN
!/SMC                CALL W3S2XY_SMC( TAUWIX(1:NSEA), XX )
!/SMC                CALL W3S2XY_SMC( TAUWIY(1:NSEA), XY )
              ELSE
                CALL W3S2XY ( NSEA, NSEA, NX+1, NY, TAUWIX(1:NSEA)      &
                                                        , MAPSF, XX )
                CALL W3S2XY ( NSEA, NSEA, NX+1, NY, TAUWIY(1:NSEA)      &
                                                        , MAPSF, XY )
              ENDIF ! SMCGRD
              !! Commented out unnecessary statements below for time being
              !! TAUWIX, TAUWIY are in north-east convention and X1,X2
              !! are not actually written out below
              !DO ISEA=1, NSEA
              !  CABS   = SQRT(TAUWIX(ISEA)**2+TAUWIY(ISEA)**2)
              !  IF ( CABS .NE. UNDEF ) THEN
              !      TAUWIY(ISEA) = MOD ( 630. -                         &
              !            RADE*ATAN2(TAUWIY(ISEA),TAUWIX(ISEA)) , 360. )
              !    ELSE
              !      TAUWIY(ISEA) = UNDEF
              !    END IF
              !  TAUWIX(ISEA) = CABS
              !  END DO
              !CALL W3S2XY ( NSEA, NSEA, NX+1, NY, TAUWIX, MAPSF, X1 )
              !CALL W3S2XY ( NSEA, NSEA, NX+1, NY, TAUWIY, MAPSF, X2 )
              NFIELD=2
!
            ! Wave to wind stress
            ELSE IF ( IFI .EQ. 5 .AND. IFJ .EQ. 6 ) THEN
!/RTD              ! Rotate x,y vector back to standard pole
!/RTD              IF ( FLAGUNR ) CALL W3XYRTN(NSEA, TAUWNX(1:NSEA), TAUWNY(1:NSEA), AnglD)
              IF( SMCGRD ) THEN
!/SMC                CALL W3S2XY_SMC( TAUWNX(1:NSEA), XX )
!/SMC                CALL W3S2XY_SMC( TAUWNY(1:NSEA), XY )
              ELSE
                CALL W3S2XY ( NSEA, NSEA, NX+1, NY, TAUWNX(1:NSEA)   &
                                                        , MAPSF, XX )
                CALL W3S2XY ( NSEA, NSEA, NX+1, NY, TAUWNY(1:NSEA)   &
                                                        , MAPSF, XY )
              ENDIF ! SMCGRD
              NFIELD=2
!
            ! Whitecap coverage
            ELSE IF ( IFI .EQ. 5 .AND. IFJ .EQ. 7 ) THEN
              IF( SMCGRD ) THEN
!/SMC                CALL W3S2XY_SMC( WHITECAP(1:NSEA,1), X1 )
              ELSE
                CALL W3S2XY ( NSEA, NSEA, NX+1, NY, WHITECAP(1:NSEA,1) &
                                                        , MAPSF, X1 )
              ENDIF ! SMCGRD
!
            ! Whitecap foam thickness
            ELSE IF ( IFI .EQ. 5 .AND. IFJ .EQ. 8 ) THEN
              IF( SMCGRD ) THEN
!/SMC                CALL W3S2XY_SMC( WHITECAP(1:NSEA,2), X1 )
              ELSE
                CALL W3S2XY ( NSEA, NSEA, NX+1, NY, WHITECAP(1:NSEA,2) &
                                                        , MAPSF, X1 )
              ENDIF
!
            ! Significant breaking wave height
            ELSE IF ( IFI .EQ. 5 .AND. IFJ .EQ. 9 ) THEN
              IF( SMCGRD ) THEN
!/SMC                CALL W3S2XY_SMC( WHITECAP(1:NSEA,3), X1 )
              ELSE
                CALL W3S2XY ( NSEA, NSEA, NX+1, NY, WHITECAP(1:NSEA,3) &
                                                        , MAPSF, X1 )
              ENDIF ! SMCGRD
!
            ! Whitecap moment
            ELSE IF ( IFI .EQ. 5 .AND. IFJ .EQ. 10 ) THEN
              IF( SMCGRD ) THEN
!/SMC                CALL W3S2XY_SMC( WHITECAP(1:NSEA,4), X1 )
              ELSE
                CALL W3S2XY ( NSEA, NSEA, NX+1, NY, WHITECAP(1:NSEA,4) &
                                                        , MAPSF, X1 )
              ENDIF ! SMCGRD
!
            ! Wind sea mean period T0M1
            ELSE IF ( IFI .EQ. 5 .AND. IFJ .EQ. 11 ) THEN
              IF( SMCGRD ) THEN
!/SMC                CALL W3S2XY_SMC( TWS(1:NSEA), X1 )
              ELSE
                CALL W3S2XY ( NSEA, NSEA, NX+1, NY, TWS(1:NSEA), MAPSF, X1 )
              ENDIF ! SMCGRD
!
            ! Radiation stress
            ELSE IF ( IFI .EQ. 6 .AND. IFJ .EQ. 1 ) THEN
!/RTD         ! Radition stress components are always left on rotated pole
!/RTD         ! at present - need to confirm how to de-rotate

              IF( SMCGRD ) THEN
!/SMC                CALL W3S2XY_SMC( SXX(1:NSEA), X1 )
!/SMC                CALL W3S2XY_SMC( SYY(1:NSEA), X2 )
!/SMC                CALL W3S2XY_SMC( SXY(1:NSEA), XY )
              ELSE
              CALL W3S2XY ( NSEA, NSEA, NX+1, NY, SXX(1:NSEA)       &
                                                        , MAPSF, X1 )
              CALL W3S2XY ( NSEA, NSEA, NX+1, NY, SYY(1:NSEA)       &
                                                        , MAPSF, X2 )
              CALL W3S2XY ( NSEA, NSEA, NX+1, NY, SXY(1:NSEA)       &
                                                        , MAPSF, XY )
              ENDIF ! SMCGRD
              NFIELD=3
!
            ! Wave to ocean stress
            ELSE IF ( IFI .EQ. 6 .AND. IFJ .EQ. 2 ) THEN
!/RTD              ! Rotate x,y vector back to standard pole
!/RTD              IF ( FLAGUNR ) CALL W3XYRTN(NSEA, TAUOX(1:NSEA), TAUOY(1:NSEA), AnglD)
              IF( SMCGRD ) THEN
!/SMC                CALL W3S2XY_SMC( TAUOX(1:NSEA), XX )
!/SMC                CALL W3S2XY_SMC( TAUOY(1:NSEA), XY )
              ELSE
                CALL W3S2XY ( NSEA, NSEA, NX+1, NY, TAUOX(1:NSEA)      &
                                                        , MAPSF, XX )
                CALL W3S2XY ( NSEA, NSEA, NX+1, NY, TAUOY(1:NSEA)      &
                                                        , MAPSF, XY )
              ENDIF ! SMCGRD
              NFIELD=2
!
            ! Radiation pressure (Bernouilli Head)
            ELSE IF ( IFI .EQ. 6 .AND. IFJ .EQ. 3 ) THEN
              IF( SMCGRD ) THEN
!/SMC                CALL W3S2XY_SMC( BHD(1:NSEA), X1 )
              ELSE
                CALL W3S2XY ( NSEA, NSEA, NX+1, NY, BHD(1:NSEA)  &
                                                        , MAPSF, X1 )
              ENDIF ! SMCGRD
!
            ! Wave to ocean energy flux
            ELSE IF ( IFI .EQ. 6 .AND. IFJ .EQ. 4 ) THEN
              IF (NCVARTYPEI.EQ.3) NCVARTYPE=4
              DO ISEA=1, NSEA
                 PHIOC(ISEA)=MIN(3000.,PHIOC(ISEA))
                 END DO
              IF( SMCGRD ) THEN
!/SMC                CALL W3S2XY_SMC( PHIOC(1:NSEA), X1 )
              ELSE
                CALL W3S2XY ( NSEA, NSEA, NX+1, NY, PHIOC(1:NSEA)  &
                                                        , MAPSF, X1 )
              ENDIF ! SMCGRD
!
            ! Stokes transport
            ELSE IF ( IFI .EQ. 6 .AND. IFJ .EQ. 5 ) THEN
!/RTD              ! Rotate x,y vector back to standard pole
!/RTD              IF ( FLAGUNR ) CALL W3XYRTN(NSEA, TUSX(1:NSEA), TUSY(1:NSEA), AnglD)
              IF( SMCGRD ) THEN
!/SMC                CALL W3S2XY_SMC( TUSX(1:NSEA), XX )
!/SMC                CALL W3S2XY_SMC( TUSY(1:NSEA), XY )
              ELSE
                CALL W3S2XY ( NSEA, NSEA, NX+1, NY, TUSX(1:NSEA)      &
                                                        , MAPSF, XX )
                CALL W3S2XY ( NSEA, NSEA, NX+1, NY, TUSY(1:NSEA)      &
                                                        , MAPSF, XY )
              ENDIF ! SMCGRD
! X1, X2 will not be output when NFIELD == 2
! ( Like for .cur, .wnd, .ust, .taw, and .uss ) (CHA at FCOO 2019-06-13): 
              !! Commented out unnecessary statements below for time being
              !! (...) X1,X2 are not actually written out below
              !DO ISEA=1, NSEA
              !  CABS   = SQRT(TUSX(ISEA)**2+TUSY(ISEA)**2)
              !  IF ( CABS .NE. UNDEF ) THEN
              !      TUSY(ISEA) = MOD ( 630. -                         &
              !            RADE*ATAN2(TUSY(ISEA),TUSX(ISEA)) , 360. )
              !    ELSE
              !      TUSY(ISEA) = UNDEF
              !    END IF
              !  TUSX(ISEA) = CABS
              !  END DO
              !IF( SMCGRD ) THEN
!/SMC                !CALL W3S2XY_SMC( TUSX(:), X1 )
!/SMC                !CALL W3S2XY_SMC( TUSY(:), X2 ) ! TODO: CHRISB: TUSY is in degrees....W3S2XY_SMC expects radians...
              !ELSE
              !  CALL W3S2XY ( NSEA, NSEA, NX+1, NY,TUSX,MAPSF, X1 )
              !  CALL W3S2XY ( NSEA, NSEA, NX+1, NY,TUSY,MAPSF, X2 )
              !ENDIF ! SMCGRD
              NFIELD=2
!
            ! Surface stokes drift
            ELSE IF ( IFI .EQ. 6 .AND. IFJ .EQ. 6 ) THEN
              DO ISEA=1, NSEA
                 USSX(ISEA)=MAX(-0.9998,MIN(0.9998,USSX(ISEA)))
                 USSY(ISEA)=MAX(-0.9998,MIN(0.9998,USSY(ISEA)))
                 END DO
!/RTD              ! Rotate x,y vector back to standard pole
!/RTD              IF ( FLAGUNR ) CALL W3XYRTN(NSEA, USSX(1:NSEA), USSY(1:NSEA), AnglD)
              IF( SMCGRD ) THEN
!/SMC                CALL W3S2XY_SMC( USSX(1:NSEA), XX )
!/SMC                CALL W3S2XY_SMC( USSY(1:NSEA), XY )
              ELSE
                CALL W3S2XY ( NSEA, NSEA, NX+1, NY, USSX(1:NSEA)      &
                                                        , MAPSF, XX )
                CALL W3S2XY ( NSEA, NSEA, NX+1, NY, USSY(1:NSEA)      &
                                                        , MAPSF, XY )
              ENDIF ! SMCGRD
              !! Commented out unnecessary statements below for time being
              !! TAUWIX, TAUWIY are in north-east convention and X1,X2
              !! are not actually written out below
              !DO ISEA=1, NSEA
              !  CABS   = SQRT(USSX(ISEA)**2+USSY(ISEA)**2)
              !  IF ( CABS .NE. UNDEF ) THEN
              !      USSY(ISEA) = MOD ( 630. -                         &
              !            RADE*ATAN2(USSY(ISEA),USSX(ISEA)) , 360. )
              !    ELSE
              !      USSY(ISEA) = UNDEF
              !    END IF
              !  USSX(ISEA) = CABS
              !  END DO
              !CALL W3S2XY ( NSEA, NSEA, NX+1, NY,USSX,MAPSF, X1 )
              !CALL W3S2XY ( NSEA, NSEA, NX+1, NY,USSY,MAPSF, X2 )
              NFIELD=2
!
            ! Power spectral density of equivalent surface pressure
            ELSE IF ( IFI .EQ. 6 .AND. IFJ .EQ. 7 ) THEN
              NFIELD=2
              IF( SMCGRD ) THEN
!/SMC                CALL W3S2XY_SMC( PRMS(1:NSEA), XX )
!/SMC                CALL W3S2XY_SMC( TPMS(1:NSEA), XY )
              ELSE
                CALL W3S2XY ( NSEA, NSEA, NX+1, NY, PRMS(1:NSEA)      &
                                                        , MAPSF, XX )
                CALL W3S2XY ( NSEA, NSEA, NX+1, NY, TPMS(1:NSEA)      &
                                                        , MAPSF, XY )
              ENDIF ! SMCGRD
!
            ! Spectral variance of surface stokes drift
            ELSE IF ( IFI .EQ. 6 .AND. IFJ .EQ. 8 ) THEN
              ! Information for spectral distribution of surface Stokes drift (2nd file)
              FLFRQ=.TRUE.
              NFIELD=2
              I1F=US3DF(2)
              I2F=US3DF(3)
              DO IK= I1F,I2F
!/RTD                ! Rotate x,y vector back to standard pole
!/RTD                IF ( FLAGUNR ) CALL W3XYRTN(NSEA, US3D(:,IK), US3D(:,NK+IK), AnglD)
                IF( SMCGRD ) THEN
!/SMC                  CALL W3S2XY_SMC( US3D(:,IK), XX )
!/SMC                  CALL W3S2XY_SMC( US3D(:,NK+IK), XY )
                ELSE
                  CALL W3S2XY ( NSEA, NSEA, NX+1,NY,US3D(:,IK), MAPSF, XX )
                  CALL W3S2XY ( NSEA, NSEA, NX+1,NY,US3D(:,NK+IK), MAPSF, XY )
                ENDIF ! SMCGRD
                XXK(:,:,IK)=XX
                XYK(:,:,IK)=XY
              END DO
!
            ! Base10 logarithm of power spectral density of equivalent surface pressure
            ELSE IF ( IFI .EQ. 6 .AND. IFJ .EQ.  9 ) THEN
                ! Information for spectral microseismic generation data (2nd file)
                FLFRQ=.TRUE.
                I1F=P2MSF(2)
                I2F=P2MSF(3)
                DO IK=I1F,I2F
                  IF( SMCGRD ) THEN
!/SMC                    CALL W3S2XY_SMC( P2SMS(:,IK), XX )
                  ELSE
                    CALL W3S2XY ( NSEA, NSEA, NX+1,NY,P2SMS(:,IK),MAPSF, XX )
                  ENDIF ! SMCGRD
                  IF (NCVARTYPE.EQ.2) THEN 
                     WHERE ( XX.GE.0.) XX = ALOG10(XX*(DWAT*GRAV)**2+1E-12)
                  ELSE 
                     WHERE ( XX.GE.0.) XX = XX*(DWAT*GRAV)**2
                  END IF
                
                  XK(:,:,IK)=XX
                END DO
!
            ! Wave to sea ice stress
            ELSE IF ( IFI .EQ. 6 .AND. IFJ .EQ. 10 ) THEN
!/RTD              ! Rotate x,y vector back to standard pole
!/RTD              IF ( FLAGUNR ) CALL W3XYRTN(NSEA, TAUICE(1:NSEA,1), TAUICE(1:NSEA,2), AnglD)
              IF( SMCGRD ) THEN
!/SMC                CALL W3S2XY_SMC( TAUICE(1:NSEA,1), XX )
!/SMC                CALL W3S2XY_SMC( TAUICE(1:NSEA,2), XY )
              ELSE
                CALL W3S2XY ( NSEA, NSEA, NX+1, NY, TAUICE(1:NSEA,1)        &
                                                        , MAPSF, XX )
                CALL W3S2XY ( NSEA, NSEA, NX+1, NY, TAUICE(1:NSEA,2)        &
                                                        , MAPSF, XY )
              ENDIF ! SMCGRD
              NFIELD=2
!
            ! Wave to sea ice energy flux
            ELSE IF ( IFI .EQ. 6 .AND. IFJ .EQ. 11 ) THEN
              IF (NCVARTYPEI.EQ.3) NCVARTYPE=4
              DO ISEA=1, NSEA
                 PHIOC(ISEA)=MIN(3000.,PHIOC(ISEA))
                 END DO
              IF( SMCGRD ) THEN
!/SMC                CALL W3S2XY_SMC( PHICE(1:NSEA), X1 )
              ELSE
                CALL W3S2XY ( NSEA, NSEA, NX+1, NY, PHICE(1:NSEA)  &
                                                        , MAPSF, X1 )
              ENDIF ! SMCGRD

           ! Partitioned surface stokes drift
           ELSE IF ( IFI .EQ. 6 .AND. IFJ .EQ. 12 ) THEN
              ! Information for spectral distribution of surface Stokes drift (2nd file)
              FLFRQ=.TRUE.
              IF (USSPF(1)==1) THEN
                 CUSTOMFRQ=.TRUE.
              ENDIF
              NFIELD=2
              I1F=1
              I2F=USSPF(2)
              DO IK= I1F,I2F
!/RTD                ! Rotate x,y vector back to standard pole
!/RTD                IF ( FLAGUNR ) CALL W3XYRTN(NSEA, USSP(:,IK), USSP(:,NK+IK), AnglD)
                IF( SMCGRD ) THEN
!/SMC                  CALL W3S2XY_SMC( USSP(:,IK), XX )
!/SMC                  CALL W3S2XY_SMC( USSP(:,NK+IK), XY )
                ELSE
                  CALL W3S2XY ( NSEA, NSEA, NX+1,NY,USSP(:,IK), MAPSF, XX )
                  CALL W3S2XY ( NSEA, NSEA, NX+1,NY,USSP(:,NK+IK), MAPSF, XY )
                ENDIF ! SMCGRD
                XXK(:,:,IK)=XX
                XYK(:,:,IK)=XY
              END DO
!
            ! RMS of bottom displacement amplitude
            ELSE IF ( IFI .EQ. 7 .AND. IFJ .EQ. 1 ) THEN
              ! NB: ABA and ABD are the X and Y components of the bottom displacement
!/RTD              ! Rotate x,y vector back to standard pole
!/RTD              IF ( FLAGUNR ) CALL W3XYRTN(NSEA, ABA(1:NSEA), ABD(1:NSEA), AnglD)
              IF( SMCGRD ) THEN
!/SMC                CALL W3S2XY_SMC( ABA(1:NSEA), XX )
!/SMC                CALL W3S2XY_SMC( ABD(1:NSEA), XY )
              ELSE
                CALL W3S2XY ( NSEA, NSEA, NX+1, NY, ABA(1:NSEA)     &
                                                        , MAPSF, XX )
                CALL W3S2XY ( NSEA, NSEA, NX+1, NY, ABD(1:NSEA)     &
                                                        , MAPSF, XY )
              ENDIF ! SMCGRD
              NFIELD=2
!
            ! RMS of bottom velocity amplitude
            ELSE IF ( IFI .EQ. 7 .AND. IFJ .EQ. 2 ) THEN
              ! NB: UBA and UBD are the X and Y components of the bottom velocity
!/RTD              ! Rotate x,y vector back to standard pole
!/RTD              IF ( FLAGUNR ) CALL W3XYRTN(NSEA, UBA(1:NSEA), UBD(1:NSEA), AnglD)
              CALL W3S2XY ( NSEA, NSEA, NX+1, NY, UBA(1:NSEA)       &
                                                        , MAPSF, XX )
              CALL W3S2XY ( NSEA, NSEA, NX+1, NY, UBD(1:NSEA)       &
                                                        , MAPSF, XY )
              NFIELD=2
!
            ! Bottom roughness
            ELSE IF ( IFI .EQ. 7 .AND. IFJ .EQ. 3 ) THEN
!/RTD              ! Rotate x,y vector back to standard pole
!/RTD              IF ( FLAGUNR ) CALL W3XYRTN(NSEA, BEDFORMS(1:NSEA,2), &
!/RTD                                           BEDFORMS(1:NSEA,3), AnglD)
              CALL W3S2XY ( NSEA, NSEA, NX+1, NY, BEDFORMS(1:NSEA,1)    &
                                                        , MAPSF, X1 )
              CALL W3S2XY ( NSEA, NSEA, NX+1, NY, BEDFORMS(1:NSEA,2)    &
                                                        , MAPSF, X2 )
              CALL W3S2XY ( NSEA, NSEA, NX+1, NY, BEDFORMS(1:NSEA,3)    &
                                                        , MAPSF, XY )
              NFIELD=3
!
            ! Wave dissipation in bottom boundary layer
            ELSE IF ( IFI .EQ. 7 .AND. IFJ .EQ. 4 ) THEN
              CALL W3S2XY ( NSEA, NSEA, NX+1, NY, PHIBBL(1:NSEA)    &
                                                        , MAPSF, X1 )
!
            ! Wave to bottom boundary layer stress
            ELSE IF ( IFI .EQ. 7 .AND. IFJ .EQ. 5 ) THEN
!/RTD              ! Rotate x,y vector back to standard pole
!/RTD              IF ( FLAGUNR ) CALL W3XYRTN(NSEA, TAUBBL(1:NSEA,1), &
!/RTD                                           TAUBBL(1:NSEA,2), AnglD)
              CALL W3S2XY ( NSEA, NSEA, NX+1, NY, TAUBBL(1:NSEA,1) &
                                                        , MAPSF, XX )
              CALL W3S2XY ( NSEA, NSEA, NX+1, NY, TAUBBL(1:NSEA,2) &
                                                        , MAPSF, XY )
              NFIELD=2
!
            ! Mean square slope
            ELSE IF ( IFI .EQ. 8 .AND. IFJ .EQ. 1 ) THEN
!/RTD              ! Rotate x,y vector back to standard pole
!/RTD              IF ( FLAGUNR ) CALL W3XYRTN(NSEA, MSSX, MSSY, AnglD)
              CALL W3S2XY ( NSEA, NSEA, NX+1,NY,MSSX,MAPSF, XX )
              CALL W3S2XY ( NSEA, NSEA, NX+1,NY,MSSY,MAPSF, XY )
              NFIELD=2
!
            ! Phillips constant
            ELSE IF ( IFI .EQ. 8 .AND. IFJ .EQ. 2 ) THEN
!/RTD              ! Rotate x,y vector back to standard pole
!/RTD              IF ( FLAGUNR ) CALL W3XYRTN(NSEA, MSCX, MSCY, AnglD)
              CALL W3S2XY ( NSEA, NSEA, NX+1,NY,MSCX,MAPSF, XX )
              CALL W3S2XY ( NSEA, NSEA, NX+1,NY,MSCY,MAPSF, XY )
              NFIELD=2
!
            ! u direction for mss
            ELSE IF ( IFI .EQ. 8 .AND. IFJ .EQ. 3 ) THEN
!/RTD                ! Rotate direction back to standard pole
[...]
                          END IF
                        END DO
                      END DO
                      IRET=NF90_PUT_VAR(NCID,VARID(IVAR1+1),               &
                          MX1R(IX1:IXN,IY1:IYN),(/START(1:4)/),(/COUNT(1:4)/))
                      CALL CHECK_ERR(IRET)
                    END IF ! SMCGRD
                  END DO
                END IF   ! EXTRADIM
              END IF   ! NFIELD
            END IF   ! NCVARTYPE

            ! updates the variable index
            IVAR1=IVAR1+NFIELD


            ! Loops over IPART for partition variables
            ! ChrisBunney: Don't loop IPART for last two entries in section 4
            ! (16: total wind sea fraction, 17: number of parts) as these fields
            ! do not have partitions.
            IF (IFI .EQ. 4 .AND. IFJ .LE. NOGE(IFI) - 2) THEN
560           CONTINUE
              IF (INDEXIPART.LT.NBIPART) THEN
                INDEXIPART=INDEXIPART+1
                IF (TABIPART(INDEXIPART).EQ.-1) GOTO 560      
                IPART=TABIPART(INDEXIPART)   
                GOTO 555
              END IF
            ELSE
              INDEXIPART=1
            END IF
!      
          END IF  ! FLG2D(IFI,IFJ)
        END DO  ! IFI=1, NOGRP
      END DO  ! IFJ=1, NGRPP
!
! Clean up
      DEALLOCATE(X1, X2, XX, XY, XK, XXK, XYK)
      DEALLOCATE(MX1, MXX, MYY, MXY, MAPOUT)
      DEALLOCATE(MX1R, MXXR, MYYR, MXYR)
      DEALLOCATE(AUX1)
      IF (ALLOCATED(LON)) DEALLOCATE(LON, LAT)
      IF (ALLOCATED(LON2D)) DEALLOCATE(LON2D, LAT2D)
!/RTD      IF (ALLOCATED(LON2DEQ)) DEALLOCATE(LAT2DEQ, LON2DEQ, ANGLD2D)
!
      RETURN
!
! Error escape locations
!

!
! Formats
!
  973 FORMAT ( 'NEW NETCDF FILE WAS CREATED ',A)
  999 FORMAT (/' *** WAVEWATCH III ERROR IN W3EXNC :'/                &
               '     PLEASE UPDATE FIELDS !!! '/                      &
               '     IFI = ',I2, '- IFJ = ',I2/)
!               
!/T 9000 FORMAT (' TEST W3EXNC : FLAGS :',I3,2X,20L2)
!/T 9001 FORMAT (' TEST W3EXNC : ITPYE :',I4/                         &
!/T              '             IX1/N   :',2I7/                        &
!/T              '             IY1/N   :',2I7/                        &
!/T              '             VECTOR  :',1L2)
!
!/T 9012 FORMAT (' TEST W3EXNC : BLOK PARS    : ',3I4)
!/T 9014 FORMAT ('           BASE NAME : ',A)
!
!/T 9020 FORMAT (' TEST W3EXNC : OUTPUT FIELD : ',A)
!/



!/ End of W3EXNC ----------------------------------------------------- /
!/
      END SUBROUTINE W3EXNC




!--------------------------------------------------------------------------    
      SUBROUTINE W3CRNC (NCFILE, NCID, DIMID, DIMLN, VARID,  &
                         EXTRADIM, NCTYPE, MAPSTAOUT )
!
      USE W3GDATMD, ONLY : GTYPE, FLAGLL, UNGTYPE, CLGTYPE, RLGTYPE
!/RTD ! Rotated pole parameters from the mod_def file 
!/RTD      USE W3GDATMD, ONLY : POLAT, POLON
      USE NETCDF
      USE W3TIMEMD

      IMPLICIT NONE
      


      INTEGER, INTENT(IN)               :: EXTRADIM
      INTEGER, INTENT(IN)               :: NCTYPE
      CHARACTER*(*), INTENT(IN)         :: NCFILE
      INTEGER, INTENT(OUT)              :: NCID
      INTEGER, INTENT(OUT)              :: DIMID(6)
      INTEGER, INTENT(IN)               :: DIMLN(6)
      INTEGER, INTENT(OUT)              :: VARID(300)
      INTEGER, INTENT(IN)               :: MAPSTAOUT
!
!/ ------------------------------------------------------------------- /
!   Local parameters
!
      INTEGER                           :: IVAR,IRET,ICODE,STRL,STRL2
      INTEGER                           :: DIMTRI(2)
!/NC4    INTEGER                           :: DEFLATE=1
!
      CHARACTER                         :: ATTNAME*120,ATTVAL*120

!/RTD ! RTDL == False for a standard lat-lon grid. Will be set to True if the
!/RTD ! grid is rotated
!/RTD      LOGICAL                           :: RTDL = .FALSE.

!/RTD ! Is the grid really rotated
!/RTD        IF ( Polat < 90. ) RTDL = .True.
!      
! Creation in netCDF3 or netCDF4
!
      IF(NCTYPE.EQ.3)  IRET = NF90_CREATE(TRIM(NCFILE), NF90_CLOBBER, NCID)
!/NC4      IF(NCTYPE.EQ.4) IRET = NF90_CREATE(TRIM(NCFILE), NF90_NETCDF4, NCID)
      CALL CHECK_ERR(IRET)
!
! Define dimensions
!
      IRET = NF90_DEF_DIM(NCID, 'level', DIMLN(1), DIMID(1))

!
! Regular structured case
!
      IF (GTYPE.NE.UNGTYPE) THEN 
        IF (FLAGLL) THEN
          IF (SMCGRD) THEN
!/SMC            IF(SMCTYPE .EQ. 1) THEN
!/SMC               ! Flat seapoints file
!/SMC               IRET = NF90_DEF_DIM(NCID, 'seapoint', dimln(2), DIMID(2))
!/SMC            ELSE
!/SMC               ! Regular gridded file:
!/SMC               IRET = NF90_DEF_DIM(NCID, 'longitude', dimln(2), DIMID(2))
!/SMC               IRET = NF90_DEF_DIM(NCID, 'latitude', dimln(3), DIMID(3))
!/SMC            ENDIF
          ELSE
            IRET = NF90_DEF_DIM(NCID, 'longitude', DIMLN(2), DIMID(2))
            IRET = NF90_DEF_DIM(NCID, 'latitude', DIMLN(3), DIMID(3))
          ENDIF ! SMCGRD
        ELSE                     
          IRET = NF90_DEF_DIM(NCID, 'x', DIMLN(2), DIMID(2))
          IRET = NF90_DEF_DIM(NCID, 'y', DIMLN(3), DIMID(3))
          END IF
        CALL CHECK_ERR(IRET)
!
! Unstructured case
!
      ELSE
        IRET = NF90_DEF_DIM(NCID, 'node', DIMLN(2), DIMID(2))
        IRET = NF90_DEF_DIM(NCID, 'element', DIMLN(3), DIMID(3))
        CALL CHECK_ERR(IRET)
      ENDIF
!
!


      IF (EXTRADIM.EQ.1) THEN
        IRET = NF90_DEF_DIM(NCID, 'f', DIMLN(4), DIMID(4))
        CALL CHECK_ERR(IRET)
      ENDIF

      IRET = NF90_DEF_DIM(NCID, 'time',NF90_UNLIMITED, DIMID(4+EXTRADIM))
      CALL CHECK_ERR(IRET)

      IF (GTYPE.EQ.UNGTYPE) THEN 
        IRET = NF90_DEF_DIM(NCID, 'noel',3, DIMID(5+EXTRADIM))
        CALL CHECK_ERR(IRET)
      ENDIF

      
!
!     define variables
!
      IF (FLAGLL) THEN 
!longitude
        IF (GTYPE.EQ.RLGTYPE) THEN 
          IF (SMCGRD) THEN
!/SMC            IF(SMCTYPE .EQ. 1) THEN
!/SMC              ! Flat SMC grid - use seapoint dimension:
!/SMC              IRET = NF90_DEF_VAR(NCID, 'longitude', NF90_FLOAT, DIMID(2), VARID(1))
!/SMC              CALL CHECK_ERR(IRET)
!/SMC              IRET = NF90_DEF_VAR(NCID, 'latitude', NF90_FLOAT, DIMID(2), VARID(2))
!/SMC              CALL CHECK_ERR(IRET)
!/SMC
!/SMC              ! For seapoint style SMC grid, also define out cell size variables:
!/SMC              IRET = NF90_DEF_VAR(NCID, 'cx', NF90_SHORT, DIMID(2), VARID(5))
!/SMC              CALL CHECK_ERR(IRET)
!/SMC              IRET = NF90_PUT_ATT(NCID, VARID(299), 'long_name',        &
!/SMC                                  'longitude cell size factor')
!/SMC              IRET = NF90_PUT_ATT(NCID, VARID(299), 'valid_min', 1)
!/SMC              IRET = NF90_PUT_ATT(NCID, VARID(299), 'valid_max', 256)
!/SMC
!/SMC              IRET = NF90_DEF_VAR(NCID, 'cy', NF90_SHORT, DIMID(2), VARID(6))
!/SMC              call CHECK_ERR(IRET)
!/SMC              IRET = NF90_PUT_ATT(NCID, VARID(300), 'long_name',        &
!/SMC                                  'latitude cell size factor')
!/SMC              IRET = NF90_PUT_ATT(NCID, VARID(300), 'valid_min', 1)
!/SMC              IRET = NF90_PUT_ATT(NCID, VARID(300), 'valid_max', 256)
!/SMC            ELSE
!/SMC              ! Regirdded regular SMC grid - use lon/lat dimensions:
!/SMC              IRET = NF90_DEF_VAR(NCID, 'longitude', NF90_FLOAT, DIMID(2), VARID(1))
!/SMC              call CHECK_ERR(IRET)
!/SMC              IRET = NF90_DEF_VAR(NCID, 'latitude', NF90_FLOAT, DIMID(3), VARID(2))
!/SMC              call CHECK_ERR(IRET)
!/SMC            ENDIF
          ELSE
            IRET = NF90_DEF_VAR(NCID, 'longitude', NF90_FLOAT, DIMID(2), VARID(1))
            IRET = NF90_DEF_VAR(NCID, 'latitude', NF90_FLOAT, DIMID(3), VARID(2))
          ENDIF ! SMCGRD
        ELSE IF (GTYPE.EQ.CLGTYPE) THEN
          IRET = NF90_DEF_VAR(NCID, 'longitude', NF90_FLOAT, (/ DIMID(2), DIMID(3)/), &
                                                                            VARID(1))
          IRET = NF90_DEF_VAR(NCID, 'latitude', NF90_FLOAT, (/ DIMID(2), DIMID(3)/), &
                                                                            VARID(2))
        ELSE
          IRET = NF90_DEF_VAR(NCID, 'longitude', NF90_FLOAT, DIMID(2), VARID(1))
          IRET = NF90_DEF_VAR(NCID, 'latitude', NF90_FLOAT, DIMID(2), VARID(2))
          END IF
        IRET=NF90_PUT_ATT(NCID,VARID(1),'units','degree_east')
!/RTD ! Is the grid really rotated
!/RTD        IF ( .NOT. RTDL ) THEN        
        IRET=NF90_PUT_ATT(NCID,VARID(1),'long_name','longitude')
        IRET=NF90_PUT_ATT(NCID,VARID(1),'standard_name','longitude')
!/RTD        ELSE     
!/RTD        ! Override the above for RTD pole:
!/RTD          IRET=NF90_PUT_ATT(NCID,VARID(1),'long_name','longitude in rotated pole grid')
!/RTD          IRET=NF90_PUT_ATT(NCID,VARID(1),'standard_name','grid_longitude')
!/RTD        END IF        
        IRET=NF90_PUT_ATT(NCID,VARID(1),'valid_min',-180.0)
        IRET=NF90_PUT_ATT(NCID,VARID(1),'valid_max',360.)
!
        IRET=NF90_PUT_ATT(NCID,VARID(2),'units','degree_north')
!/RTD        IF ( .NOT. RTDL ) THEN        
        IRET=NF90_PUT_ATT(NCID,VARID(2),'long_name','latitude')
        IRET=NF90_PUT_ATT(NCID,VARID(2),'standard_name','latitude')
!/RTD        ELSE        
!/RTD        ! Override the above for RTD pole:
!/RTD        IRET=NF90_PUT_ATT(NCID,VARID(2),'long_name','latitude in rotated pole grid')
!/RTD        IRET=NF90_PUT_ATT(NCID,VARID(2),'standard_name','grid_latitude')
!/RTD        END IF        
        IRET=NF90_PUT_ATT(NCID,VARID(2),'valid_min',-90.0)
        IRET=NF90_PUT_ATT(NCID,VARID(2),'valid_max',180.)
!
        IF(SMCGRD) THEN
!/SMC          IF(SMCTYPE .EQ. 1) THEN
!/RTD            ! For SMC grid type 1, standard lat/lon variables are 1D:
!/RTD            IRET = NF90_DEF_VAR(NCID, 'standard_longitude', NF90_FLOAT, &
!/RTD                    (/ DIMID(2) /), VARID(7))
!/RTD            call CHECK_ERR(IRET)
!/RTD 
!/RTD            IRET = NF90_DEF_VAR(NCID, 'standard_latitude', NF90_FLOAT, &
!/RTD                    (/ DIMID(2) /), VARID(8))
!/RTD            call CHECK_ERR(IRET)
!/SMC          ELSE
!/RTD            IRET = NF90_DEF_VAR(NCID, 'standard_longitude', NF90_FLOAT, &
!/RTD                    (/ DIMID(2), DIMID(3)/), VARID(7))
!/RTD            call CHECK_ERR(IRET)
!/RTD
!/RTD            IRET = NF90_DEF_VAR(NCID, 'standard_latitude', NF90_FLOAT, &
!/RTD                    (/ DIMID(2), DIMID(3)/), VARID(8))
!/RTD            call CHECK_ERR(IRET)
!/SMC          ENDIF
        ELSE
!/RTD      IF ( RTDL ) THEN
!/RTD        !Add secondary coordinate system linking rotated grid back to standard lat-lon
!/RTD        IRET = NF90_DEF_VAR(NCID, 'standard_longitude', NF90_FLOAT, (/ DIMID(2), DIMID(3)/), &
!/RTD                             VARID(7))
!/RTD        call CHECK_ERR(IRET)
!/RTD
!/RTD        IRET = NF90_DEF_VAR(NCID, 'standard_latitude', NF90_FLOAT, (/ DIMID(2), DIMID(3)/), &
!/RTD                             VARID(8))
!/RTD        call CHECK_ERR(IRET)
!/RTD      END IF
        ENDIF ! SMCGRD
!/RTD
!/RTD      IF ( RTDL ) THEN
!/RTD        ! Attributes for standard_longitude:
!/RTD        IRET=NF90_PUT_ATT(NCID,VARID(7),'units','degree_east')
!/RTD        IRET=NF90_PUT_ATT(NCID,VARID(7),'long_name','longitude')
!/RTD        IRET=NF90_PUT_ATT(NCID,VARID(7),'standard_name','longitude')
!/RTD        IRET=NF90_PUT_ATT(NCID,VARID(7),'valid_min',-180.0)
!/RTD        IRET=NF90_PUT_ATT(NCID,VARID(7),'valid_max',360.)
!/RTD
!/RTD        ! Attributes for standard_latitude:
!/RTD        IRET=NF90_PUT_ATT(NCID,VARID(8),'units','degree_north')
!/RTD        IRET=NF90_PUT_ATT(NCID,VARID(8),'long_name','latitude')
!/RTD        IRET=NF90_PUT_ATT(NCID,VARID(8),'standard_name','latitude')
!/RTD        IRET=NF90_PUT_ATT(NCID,VARID(8),'valid_min',-90.0)
!/RTD        IRET=NF90_PUT_ATT(NCID,VARID(8),'valid_max',180.)
!/RTD
!/RTD        ! Add rotated pole grid mapping variable (dummy scalar variable
!/RTD        ! used to simply store rotated pole information; see CF1.6 conventions).
!/RTD        ! TODO: FUTURE WW3_OUNF DEVELOPMENT WILL ALLOW USER TO DEFINE THE 
!/RTD        ! COORDINATE REFERENCE SYSTEM - THIS WILL REQUIRE THE BELOW TO BE
!/RTD        ! HANDLED DIFFERENTLY. C. Bunney.
!/RTD        IRET=NF90_DEF_VAR(NCID, 'rotated_pole', NF90_CHAR, VARID(12))
!/RTD        IRET=NF90_PUT_ATT(NCID, VARID(12), 'grid_north_pole_latitude',POLAT)
!/RTD        IRET=NF90_PUT_ATT(NCID, VARID(12), 'grid_north_pole_longitude',POLON)
!/RTD        IRET=NF90_PUT_ATT(NCID, VARID(12), 'grid_mapping_name',              &
!/RTD                                   'rotated_latitude_longitude')
!/RTD      END IF
!
      ELSE 
        IF (GTYPE.EQ.RLGTYPE) THEN 
          IRET = NF90_DEF_VAR(NCID, 'x', NF90_FLOAT, DIMID(2), VARID(1))
          IRET = NF90_DEF_VAR(NCID, 'y', NF90_FLOAT, DIMID(3), VARID(2))
        ELSE IF (GTYPE.EQ.CLGTYPE) THEN 
          IRET = NF90_DEF_VAR(NCID, 'x', NF90_FLOAT, (/ DIMID(2), DIMID(3)/), &
                                                                            VARID(1))
          IRET = NF90_DEF_VAR(NCID, 'y', NF90_FLOAT, (/ DIMID(2), DIMID(3)/), &
                                                                            VARID(2))
        ELSE
          IRET = NF90_DEF_VAR(NCID, 'x', NF90_FLOAT, DIMID(2), VARID(1))
          IRET = NF90_DEF_VAR(NCID, 'y', NF90_FLOAT, DIMID(2), VARID(2))
          END IF
!
        IRET=NF90_PUT_ATT(NCID,VARID(1),'units','m')
        IRET=NF90_PUT_ATT(NCID,VARID(1),'long_name','x')
        IRET=NF90_PUT_ATT(NCID,VARID(2),'units','m')
        IRET=NF90_PUT_ATT(NCID,VARID(2),'long_name','y')
!
      END IF  ! FLAGLL
!
      IRET=NF90_PUT_ATT(NCID,VARID(1),'axis','X')    
      IRET=NF90_PUT_ATT(NCID,VARID(2),'axis','Y')
!/NC4        IF (NCTYPE.EQ.4) IRET = NF90_DEF_VAR_DEFLATE(NCID, VARID(1), 1, 1, DEFLATE)
!/NC4        IF (NCTYPE.EQ.4) IRET = NF90_DEF_VAR_DEFLATE(NCID, VARID(2), 1, 1, DEFLATE)

!
! frequency
!
      if (EXTRADIM.EQ.1) THEN
        IRET = NF90_DEF_VAR(NCID, 'f', NF90_FLOAT, DIMID(4), VARID(10))
!/NC4        IF (NCTYPE.EQ.4) IRET = NF90_DEF_VAR_DEFLATE(NCID, VARID(10), 1, 1, DEFLATE)
        CALL CHECK_ERR(IRET)
        IRET=NF90_PUT_ATT(NCID,VARID(3),'long_name','wave_frequency')
        CALL CHECK_ERR(IRET)
        IRET=NF90_PUT_ATT(NCID,VARID(3),'standard_name','wave_frequency')
        CALL CHECK_ERR(IRET)
        IRET=NF90_PUT_ATT(NCID,VARID(3),'units','s-1')
        CALL CHECK_ERR(IRET)
        IRET=NF90_PUT_ATT(NCID,VARID(3),'axis','Hz')
        CALL CHECK_ERR(IRET)
      END IF


!
!  time
!
      IRET = NF90_DEF_VAR(NCID, 'time', NF90_DOUBLE, DIMID(4+EXTRADIM), VARID(3))
!/NC4      IF (NCTYPE.EQ.4) IRET = NF90_DEF_VAR_DEFLATE(NCID, VARID(3), 1, 1, DEFLATE)
      CALL CHECK_ERR(IRET)
      SELECT CASE (TRIM(CALTYPE))
        CASE ('360_day')
          IRET=NF90_PUT_ATT(NCID,VARID(3),'long_name','time in 360 day calendar')
        CASE ('365_day')
          IRET=NF90_PUT_ATT(NCID,VARID(3),'long_name','time in 365 day calendar')
        CASE ('standard')
          IRET=NF90_PUT_ATT(NCID,VARID(3),'long_name','julian day (UT)')
      END SELECT
      CALL CHECK_ERR(IRET)
      IRET=NF90_PUT_ATT(NCID,VARID(3),'standard_name','time')
      CALL CHECK_ERR(IRET)
      IRET=NF90_PUT_ATT(NCID,VARID(3),'units','days since 1990-01-01 00:00:00')
      CALL CHECK_ERR(IRET)
      IRET=NF90_PUT_ATT(NCID,VARID(3),'conventions', &
        'relative julian days with decimal part (as parts of the day )')
      IRET=NF90_PUT_ATT(NCID,VARID(3),'axis','T')
      CALL CHECK_ERR(IRET)
      IRET=NF90_PUT_ATT(NCID,VARID(3),'calendar',TRIM(CALTYPE))
      CALL CHECK_ERR(IRET)
!
! triangles for irregular grids
!
      IF (GTYPE.EQ.UNGTYPE) THEN
        DIMTRI(1)=DIMID(4+EXTRADIM+1)
        DIMTRI(2)=DIMID(3)
        IRET = NF90_DEF_VAR(NCID, 'tri', NF90_INT, DIMTRI, VARID(4))
!/NC4        IF (NCTYPE.EQ.4) IRET = NF90_DEF_VAR_DEFLATE(NCID, VARID(4), 1, 1, DEFLATE)
      END IF
!
!  Status map: useful for grid combination
!
      IF (MAPSTAOUT.EQ.1) THEN 
        IF (GTYPE.EQ.UNGTYPE) THEN 
          IRET = NF90_DEF_VAR(NCID,'MAPSTA', NF90_SHORT,(/ DIMID(2) /), VARID(20))
        ELSE 
          IRET = NF90_DEF_VAR(NCID,'MAPSTA', NF90_SHORT,(/ DIMID(2) , DIMID(3) /), &
                                                                       VARID(20))
          ENDIF
!/NC4          IF (NCTYPE.EQ.4) IRET = NF90_DEF_VAR_DEFLATE(NCID, VARID(20), 1, 1, DEFLATE)
!
        IRET=NF90_PUT_ATT(NCID,VARID(20),'long_name','status map')
        IRET=NF90_PUT_ATT(NCID,VARID(20),'standard_name','status map')
        IRET=NF90_PUT_ATT(NCID,VARID(20),'units','1')
        CALL CHECK_ERR(IRET)
        IRET=NF90_PUT_ATT(NCID,VARID(20),'valid_min',-32)
        CALL CHECK_ERR(IRET)
        IRET=NF90_PUT_ATT(NCID,VARID(20),'valid_max',32)
        CALL CHECK_ERR(IRET)
      END IF

!
! Global attributes
!
      IRET=NF90_PUT_ATT(NCID,NF90_GLOBAL,'WAVEWATCH_III_version_number' ,TRIM(WWVER))   
      CALL CHECK_ERR(IRET)
      IRET=NF90_PUT_ATT(NCID,NF90_GLOBAL,'WAVEWATCH_III_switches',TRIM(SWITCHES))
      CALL CHECK_ERR(IRET)
!/ST4    IF (ZZWND.NE.10)      IRET=NF90_PUT_ATT(NCID,NF90_GLOBAL,'SIN4 namelist parameter ZWD',ZZWND)
!/ST4    IF (AALPHA.NE.0.0095) IRET=NF90_PUT_ATT(NCID,NF90_GLOBAL,'SIN4 namelist parameter ALPHA0',AALPHA)
!/ST4    IF (BBETA.NE.1.43)    IRET=NF90_PUT_ATT(NCID,NF90_GLOBAL,'SIN4 namelist parameter BETAMAX',BBETA)
!/ST4    IF(SSDSC(7).NE.0.3)   IRET=NF90_PUT_ATT(NCID,NF90_GLOBAL,'SDS4 namelist parameter WHITECAPWIDTH', SSDSC(7))
! ... TO BE CONTINUED ... 

      IF(SMCGRD) THEN
!/SMC         IF(SMCTYPE .EQ. 1) THEN
!/SMC           IRET = NF90_PUT_ATT(NCID, NF90_GLOBAL, 'first_lat', Y0)
!/SMC           call CHECK_ERR(IRET)
!/SMC           IRET = NF90_PUT_ATT(NCID, NF90_GLOBAL, 'first_lon', X0)
!/SMC           call CHECK_ERR(IRET)
!/SMC           IRET = NF90_PUT_ATT(NCID, NF90_GLOBAL, 'base_lat_size', dlat)
!/SMC           call CHECK_ERR(IRET)
!/SMC           IRET = NF90_PUT_ATT(NCID, NF90_GLOBAL, 'base_lon_size', dlon)
!/SMC           call CHECK_ERR(IRET)
!/SMC           IRET=NF90_PUT_ATT(NCID,NF90_GLOBAL,'SMC_grid_type','seapoint')
!/SMC           call CHECK_ERR(IRET)
!/SMC         ELSE IF(SMCTYPE .EQ. 2) THEN
!/SMC           IRET=NF90_PUT_ATT(NCID,NF90_GLOBAL,'SMC_grid_type','regular_regridded')
!/SMC           call CHECK_ERR(IRET)
!/SMC         ENDIF
      ENDIF

      ! ChrisB: Write user global attributes:
      CALL WRITE_GLOBAL_META(NCID, IRET)
      CALL CHECK_ERR(IRET)

      open(unit=994,file='NC_globatt.inp',status='old',iostat=ICODE)
      IF (ICODE.EQ.0) THEN
        DO WHILE (ICODE.EQ.0)
          read(994,'(a)',iostat=ICODE) ATTNAME
          read(994,'(a)',iostat=ICODE) ATTVAL
          IF (ICODE.EQ.0) THEN
            STRL=LEN_TRIM(ATTNAME)
            STRL2=LEN_TRIM(ATTVAL)
            IRET=NF90_PUT_ATT(NCID,NF90_GLOBAL,ATTNAME(1:STRL),ATTVAL(1:STRL2))
            CALL CHECK_ERR(IRET)
          END IF
        END DO
      ENDIF
      CLOSE(994)
      IRET=NF90_PUT_ATT(NCID,NF90_GLOBAL,'product_name' ,TRIM(NCFILE))   
      CALL CHECK_ERR(IRET)
      IRET=NF90_PUT_ATT(NCID,NF90_GLOBAL,'area',TRIM(GNAME))
      CALL CHECK_ERR(IRET)

      RETURN

      END SUBROUTINE W3CRNC 

!==============================================================================

      SUBROUTINE CHECK_ERROR(IRET, ILINE)

      USE NETCDF
      USE W3ODATMD, ONLY: NDSE
      USE W3SERVMD, ONLY: EXTCDE

      IMPLICIT NONE

      INTEGER IRET, ILINE

      IF (IRET .NE. NF90_NOERR) THEN
        WRITE(NDSE,*) ' *** WAVEWATCH III ERROR IN OUNF :'
        WRITE(NDSE,*) ' LINE NUMBER ', ILINE
        WRITE(NDSE,*) ' NETCDF ERROR MESSAGE: '
        WRITE(NDSE,*) NF90_STRERROR(IRET)
        CALL EXTCDE ( 59 )
      END IF
      RETURN

      END SUBROUTINE CHECK_ERROR

!==============================================================================


!/
!/ End of W3OUNF ----------------------------------------------------- /
!/
      END PROGRAM W3OUNF





