$ WAVEWATCH III Initial conditions input file
$ -------------------------------------------
$ 2
$ 0.0  0.30  270.  3.3 0. 0. 0. 1. 0. 1.
$ 3
  5
$
