$ WAVEWATCH III shell input file
$ ------------------------------
   F T
   F T
   T T
   F
   F
   F
   F
$
   19680606 000000
   19680606 000100
$
   1
$
   19680606 000000   3600  19680606 010000
$
 N
 MSC MCD MSS MSD HS FP DIR PHS PTP PDIR PDP PQP PPE PGW PSW QP
$
   19680606 000000   3600  19680606 001000
     0.0   0.0  'The_point'
     0.0   0.0  'STOPSTRING'
   19680606 000000      0  19680606 001000
   19680606 000000      0  19680606 001000
   19680606 000000      0  19680606 001000
   19680606 000000      0  19680606 001000
$
   'WND' 19680606 000000    6.   128.  0.
   'CUR' 19680606 000000    2.    90.  0.
   'STP'
$
