! -------------------------------------------------------------------- !
! WAVEWATCH III ww3_shel.nml - single-grid model                       !
! -------------------------------------------------------------------- !


! -------------------------------------------------------------------- !
! Define top-level model parameters via DOMAIN_NML namelist
! -------------------------------------------------------------------- !
&DOMAIN_NML
  DOMAIN%STOP    = '19680606 000100'
/

! -------------------------------------------------------------------- !
! Define each forcing via the INPUT_NML namelist
! -------------------------------------------------------------------- !
&INPUT_NML
  INPUT%FORCING%WINDS         = 'H'
/

! -------------------------------------------------------------------- !
! Define the output types point parameters via OUTPUT_TYPE_NML namelist
! -------------------------------------------------------------------- !
&OUTPUT_TYPE_NML
  TYPE%FIELD%LIST          = 'MSC MCD MSS MSD HS FP DIR PHS PTP PDIR PDP PQP PPE PGW PSW QP'
  TYPE%POINT%FILE          = '../input_fld/points.list'
/

! -------------------------------------------------------------------- !
! Define output dates via OUTPUT_DATE_NML namelist
! -------------------------------------------------------------------- !
&OUTPUT_DATE_NML
  DATE%FIELD          = '19680606 000000' '3600' '19680606 010000'
  DATE%POINT          = '19680606 000000' '3600' '19680606 001000'
/

! -------------------------------------------------------------------- !
! Define homogeneous input via HOMOG_COUNT_NML and HOMOG_INPUT_NML namelist
! -------------------------------------------------------------------- !
&HOMOG_COUNT_NML
  HOMOG_COUNT%N_CUR                =  1
  HOMOG_COUNT%N_WND                =  1
/

&HOMOG_INPUT_NML
  HOMOG_INPUT(1)%NAME        = 'CUR'
  HOMOG_INPUT(1)%VALUE1      = 2.
  HOMOG_INPUT(1)%VALUE2      = 90.

  HOMOG_INPUT(2)%NAME        = 'WND'
  HOMOG_INPUT(2)%VALUE1      = 6.
  HOMOG_INPUT(2)%VALUE2      = 128.
  HOMOG_INPUT(2)%VALUE3      = 0.
/

! -------------------------------------------------------------------- !
! WAVEWATCH III - end of namelist                                      !
! -------------------------------------------------------------------- !
