$ WAVEWATCH III Grid output post-processing
$ -----------------------------------------
 19680606 000000  3600    2
N
 HS DIR FP PHS PTP PDIR PDP PQP PPE PGW PSW QP
$
  1 1
$
 1 999 1 1 999 1 F F
