$ WAVEWATCH III Point output post-processing
$ ------------------------------------------
  19680606 000000  600. 9999
$
  -1
$
   2
   2  50
