$ WAVEWATCH III Point output post-processing
$ ------------------------------------------
  19680606 120000   3600. 1
$
  -1
$
   1
   1  -1.  0.  33  F
