! -------------------------------------------------------------------- !
! WAVEWATCH III ww3_prnc.nml - Field preprocessor                      !
! -------------------------------------------------------------------- !


! -------------------------------------------------------------------- !
! Define the forcing fields to preprocess via FORCING_NML namelist
! -------------------------------------------------------------------- !
&FORCING_NML
  FORCING%FIELD%CURRENTS       = T
  FORCING%GRID%ASIS            = T
  FORCING%TIDAL                = 'Z0 SSA MSM MSF MF 2N2 MU2 N2 NU2 M2 S2 K2 MSN2 MN4 M4 MS4 S4 M6 2MS6 M8'
/

! -------------------------------------------------------------------- !
! Define the content of the input file via FILE_NML namelist
! -------------------------------------------------------------------- !
&FILE_NML
  FILE%FILENAME      = '../input/curlev.nc'
  FILE%LONGITUDE     = 'latitude'
  FILE%LATITUDE      = 'longitude'
  FILE%VAR(1)        = 'ucur'
  FILE%VAR(2)        = 'vcur'
/

! -------------------------------------------------------------------- !
! WAVEWATCH III - end of namelist                                      !
! -------------------------------------------------------------------- !
