$ WAVEWATCH III shell input file
$ ------------------------------
   F T
   F T
   F T
   F
   F
   F
   F
$
   19680601 000000
   19680625 000000
$
   1
$
   19680600 000000  86400  19680625 000000
$
N
HS 
$
   19680600 000000  86400  19680625 000000
   -10.0   0.0  'Point_-10'
    -9.0   0.0  'Point_-9'
    -8.0   0.0  'Point_-8'
    -7.0   0.0  'Point_-7'
    -6.0   0.0  'Point_-6'
    -5.0   0.0  'Point_-5'
    -4.0   0.0  'Point_-4'
    -3.0   0.0  'Point_-3'
    -2.0   0.0  'Point_-2'
    -1.0   0.0  'Point_-1'
     0.0   0.0  'Center'
     1.0   0.0  'Point_1'
     2.0   0.0  'Point_2'
     3.0   0.0  'Point_3'
     4.0   0.0  'Point_4'
     5.0   0.0  'Point_5'
     6.0   0.0  'Point_6'
     7.0   0.0  'Point_7'
     8.0   0.0  'Point_8'
     9.0   0.0  'Point_9'
    10.0   0.0  'Point_10'
     0.0   0.0  'STOPSTRING'
   19680601 000000      0  19680625 000000
   19680601 000000      0  19680625 000000
   19680601 000000      0  19680625 000000
   19680601 000000      0  19680625 000000
