! -------------------------------------------------------------------- !
! WAVEWATCH III - ww3_grid.nml - Grid pre-processing                   !
! -------------------------------------------------------------------- !

! -------------------------------------------------------------------- !
! Define the spectrum parameterization via SPECTRUM_NML namelist
! -------------------------------------------------------------------- !
&SPECTRUM_NML
  SPECTRUM%XFR       =  1.1
  SPECTRUM%FREQ1     =  0.03679
  SPECTRUM%NK        =  3
  SPECTRUM%NTH       =  4
/

! -------------------------------------------------------------------- !
! Define the run parameterization via RUN_NML namelist
! -------------------------------------------------------------------- !
&RUN_NML
  RUN%FLCX         =  T
/

! -------------------------------------------------------------------- !
! Define the timesteps parameterization via TIMESTEPS_NML namelist
! -------------------------------------------------------------------- !
&TIMESTEPS_NML
  TIMESTEPS%DTMAX        =  3600.
  TIMESTEPS%DTXY         =  3600.
  TIMESTEPS%DTKTH        =  3600.
  TIMESTEPS%DTMIN        =  3600.
/

! -------------------------------------------------------------------- !
! Define the grid to preprocess via GRID_NML namelist
! -------------------------------------------------------------------- !
&GRID_NML
  GRID%NAME         =  '1-D PROPAGATION EQUATOR'
  GRID%NML          =  '../input2/namelists_1-D.nml'
  GRID%TYPE         =  'RECT'
  GRID%COORD        =  'SPHE'
  GRID%CLOS         =  'SMPL'
  GRID%ZLIM         =  -5.
  GRID%DMIN         =  5.75
/

! -------------------------------------------------------------------- !
! Define the rectilinear grid type via RECT_NML namelist
! -------------------------------------------------------------------- !
&RECT_NML
  RECT%NX           =  360
  RECT%NY           =  3
  RECT%SX           =  1.
  RECT%SY           =  1.
  RECT%X0           =  -180.
  RECT%Y0           =  -1.
/

! -------------------------------------------------------------------- !
! Define the depth to preprocess via DEPTH_NML namelist
! -------------------------------------------------------------------- !
&DEPTH_NML
  DEPTH%SF        =  -2500.
  DEPTH%FILENAME  =  '../input2/1-D.depth'
  DEPTH%IDLA      =  2
/

! -------------------------------------------------------------------- !
! WAVEWATCH III - end of namelist                                      !
! -------------------------------------------------------------------- !
