! -------------------------------------------------------------------- !
! WAVEWATCH III ww3_ounf.nml - Grid output post-processing             !
! -------------------------------------------------------------------- !

! -------------------------------------------------------------------- !
! Define the output fields to postprocess via FIELD_NML namelist
! -------------------------------------------------------------------- !
&FIELD_NML
  FIELD%TIMESTART        =  '19680601 000000'
  FIELD%TIMESTRIDE       =  '518400.'
  FIELD%TIMECOUNT        =  '5'
  FIELD%LIST             =  'HS'
  FIELD%PARTITION        =  '0 1 2'
  FIELD%SAMEFILE         =  F
  FIELD%TYPE             =  4
/

! -------------------------------------------------------------------- !
! Define the content of the output file via FILE_NML namelist
! -------------------------------------------------------------------- !
&FILE_NML
  FILE%IXN           = 360
  FILE%IY0           = 2
  FILE%IYN           = 2
/

! -------------------------------------------------------------------- !
! WAVEWATCH III - end of namelist                                      !
! -------------------------------------------------------------------- !
