$ WAVEWATCH III shell input file
$ ------------------------------
   F T
   F T
   T T
   F
   F
   F
   F
$
   19681230 230000
   19690101 010000
$
   1
$
   19681230 230000   3600  19690101 010000
$
 N
 MSC MCD MSS MSD HS FP DIR PHS PTP PDIR PDP PQP PPE PGW PSW QP
$
   19681230 230000   3600  19690101 010000
     0.0   0.0  'The_point'
     0.0   0.0  'STOPSTRING'
   19681230 230000      0  19690101 010000
   19681230 230000      0  19690101 010000
   19681230 230000      0  19690101 010000
   19681230 230000      0  19690101 010000
$
   'WND' 19681230 230000    6.   128.  0.
   'CUR' 19681230 230000    2.    90.  0.
   'STP'
$
