$ WAVEWATCH III Initial conditions input file
$ -------------------------------------------
  1
$
$ Initial conditions, choose one
$
$  fp   sip   thm  ncos  xm    six       ym      siy    hmax
   0.1  0.010 240.   2  0.E3  -150.E3     0.E3  150.E3  2.5
$  0.1  0.005 240.   2  0.E3  -150.E3     0.E3  150.E3  2.5
$  0.1  0.001 240.   2  0.E3  -150.E3     0.E3  150.E3  2.5
$  0.1  0.001 240. 100  0.E3  -150.E3     0.E3  150.E3  2.5
$  0.1  0.001 270.   2  0.E3  -150.E3  1250.E3  150.E3  2.5
