$ WAVEWATCH III Grid output post-processing
$ -----------------------------------------
  19680606 000000 86400. 999
$
 N 
 HS DIR SPR DP 
$
  3 0
$
  1 999 1 999 1 1
