$ WAVEWATCH III Point output post-processing
$ ------------------------------------------
  19680606 000000  3600. 999
$
  1
 -1
$
  2
$
  2  50
