$ WAVEWATCH III shell input file
$ ------------------------------
   F T
   T T
   T T
   F
   F
   F
   F
$
   19680606 000000
   19680607 000000
$
   1
$
   19680606 000000      0  19680608 000000
   19680606 000000   3600  19680618 000000
     0.0   0.0  'The_point '
     0.0   0.0  'STOPSTRING'
   19680607 000000      0  19680608 000000
   19680607 000000      0  19680608 000000
   19680606 000000      0  19680608 000000
   19680606 000000      0  19680608 000000
$
   'CUR' 19680606 000000    2.    90. 
   'WND' 19680606 000000   20.   270.  -20.
   'WND' 19680606 020000   20.   270.  -20.
   'WND' 19680606 030000   20.   270.  -20.
   'WND' 19680606 040000   20.   270.  -20.
   'WND' 19680606 050000   20.   270.  -20.
   'STP'
