$ WAVEWATCH III Initial conditions input file
$ -------------------------------------------
$ 1
$  fp   sip    thm  ncos xm     six   ym  siy  hmax
$  0.1  0.0001 270. 12   0.    -5.E3  0.  5.E3  0.5015
$  0.1  0.0001 270.  2   0.    -5.E3  0.  5.E3  1.0
$
   2
$  alpha  fp  thm   gamma  sigA sigB  xm  six   ym siy 
   0.0081 0.1 270.0 1.0    0.07 0.09  0.  -5.E3 0. 5.E3  
