! -------------------------------------------------------------------- !
! WAVEWATCH III - ww3_shel.nml - single-grid model                     !
! -------------------------------------------------------------------- !
! -------------------------------------------------------------------- !
! Define top-level model parameters via DOMAIN_NML namelist
! -------------------------------------------------------------------- !
&DOMAIN_NML
  DOMAIN%START  = '20100101 000000'
  DOMAIN%STOP   = '20100101 010000'
/

! -------------------------------------------------------------------- !
! Define each forcing via the INPUT_NML namelist
! -------------------------------------------------------------------- !
 &INPUT_NML
   INPUT%FORCING%WINDS = 'H'
/

! -------------------------------------------------------------------- !
! Define the output types point parameters via OUTPUT_TYPE_NML namelist
! -------------------------------------------------------------------- !
&OUTPUT_TYPE_NML
  TYPE%FIELD%LIST     = 'WND HS T01 DIR PHS PTP PT01 PDIR '
  TYPE%POINT%FILE     = '../input/points.list'
/

! -------------------------------------------------------------------- !
! Define output dates via OUTPUT_DATE_NML namelist
! -------------------------------------------------------------------- !
&OUTPUT_DATE_NML
  DATE%FIELD%START         = '20100101 000000'
  DATE%FIELD%STRIDE        = '3600'
  DATE%FIELD%STOP          = '20100102 000000'
  DATE%POINT%START         = '20100101 000000'
  DATE%POINT%STRIDE        = '3600'
  DATE%POINT%STOP          = '20100102 000000'
/

! -------------------------------------------------------------------- !
! Define homogeneous input via HOMOG_COUNT_NML and HOMOG_INPUT_NML namelist
! -------------------------------------------------------------------- !
&HOMOG_COUNT_NML
  HOMOG_COUNT%N_WND        = 1
/

&HOMOG_INPUT_NML
  HOMOG_INPUT(1)%NAME       = 'WND'
  HOMOG_INPUT(1)%DATE       ='20100101 000000'
  HOMOG_INPUT(1)%VALUE1     = 8.6
  HOMOG_INPUT(1)%VALUE2     = 122.0

!  HOMOG_INPUT(2)%NAME       = 'WND'
!  HOMOG_INPUT(2)%DATE       = '20100101 120000'
!  HOMOG_INPUT(2)%VALUE1     = 10.
!  HOMOG_INPUT(2)%VALUE2     = 135.
/


! -------------------------------------------------------------------- !
! WAVEWATCH III - end of namelist                                      !
! -------------------------------------------------------------------- !
