$ -------------------------------------------------------------------- $
$ WAVEWATCH III Grid preprocessor input file                           $
$ -------------------------------------------------------------------- $
$ Grid name (C*30, in quotes)
$
  'Partitioning test grid'
$
   1.1  0.04118  30  36  0.
$
$ Set model flags ---------------------------------------------------- $
$
   F F F F F T
$
$ Set time steps ----------------------------------------------------- $
$
    600. 100. 100. 60.
$
$ Start of namelist input section ------------------------------------ $
$
  &MISC FLAGTR = 0, PTM = 5, PTFC = 0.1 /
END OF NAMELISTS
$
$ Define grid -------------------------------------------------------- $
$
     'RECT'  T  'NONE'
      5      5
      1.     1.     2.
     -1.    -1.     1.
     -0.1 2.50  10  -100. 3 1 '(....)' 'NAME' 'bottom.inp'
$
  1 1 1 1 1
  1 1 1 1 1
  1 1 1 1 1
  1 1 1 1 1
  1 1 1 1 1
$
$ Input boundary points and excluded points -------------------------- $
$
   10 3 1 '(....)' 'NAME' 'mapsta.inp'
$
  3 3 3 3 3
  3 2 2 2 3
  3 2 1 2 3
  3 2 2 2 3
  3 3 3 3 3
$
$ Output boundary points --------------------------------------------- $
$
     0.    0.    0.    0.       0
$
$ -------------------------------------------------------------------- $
$ End of input file                                                    $
$ -------------------------------------------------------------------- $
