$ WAVEWATCH III Grid preprocessor input file
$ ------------------------------------------
  '2-D PROPAGATION TEST 2.5c     '
$
   1.1 0.03679  3   12  0.
$
$ Set model flags ----------------------------------------------- $
$  - FLDRY         Dry run (input/output only, no calculation).
$  - FLCX, FLCY    Activate X and Y component of propagation.
$  - FLCTH, FLCK   Activate direction and wavenumber shifts.
$  - FLSOU         Activate source terms.
$
$ standard setup:   F T T T F T 
   F T T T F F
$ Set parameters for numerical schemes -------------------------- $
$ - Time step information (this information is always read)
$     maximum global time step, maximum CFL time step for x-y and 
$     k-theta, minimum source term time step (all in seconds).
$ from calc_CFL.m, T=1/0.0368, Cg=25.447, I get dt=572 s
  500.  500.0  500.  500.
$
 &PRO2 DTIME = 0. /
 &PRO3 WDTHCG = 0., WDTHTH = 0. /
END OF NAMELISTS
$
  'CURV' T 'NONE'
  361  361
$  20  1.0     0.0 1 1 '(....)' 'NAME' './../input/longit.nx361_ny361.dat'
$  20  1.0     0.0 1 1 '(....)' 'NAME' './../input/longit.0_to_360.dat'
$  21  1.0     0.0 1 1 '(....)' 'NAME' './../input/latit.nx361_ny361.dat'
$ -0.1 7.50 9 -1.0 1 1 '(....)' 'NAME' './../input/depth.nx361_ny361.dat' 
$ notes: after my experience from test case 6d, I have decided to transpose and fliplr my 361x361 grids. note that this will affect my specification of boundary points.
   20  1.0     0.0 1 1 '(....)' 'NAME' './../input/lon.361x361.TLR.dat'
   21  1.0     0.0 1 1 '(....)' 'NAME' './../input/lat.361x361.TLR.dat'
  -0.1 7.50 9 -1.0 1 1 '(....)' 'NAME' './../input/dep.361x361.TLR.dat' 
$
$ deep water:  -0.1 0.25  10  -1000. 4 1 '(....)' 'UNIT' 'input'
$ deep water:   130321*1
$
$ Input boundary points and excluded points -------------------------- $
$    The first line identifies where to get the map data, by unit number
$    IDLA and IDFM, format for formatted read, FROM and filename
$    if FROM = 'PART', then segmented data is read from below, else
$    the data is read from file as with the other inputs (as INTEGER)
$
$   10 3 1 '(....)' 'PART' 'mapsta.inp' {example}
$
   10 1 1 '(....)' 'PART' 'mapsta.inp'
$
$
$ Input boundary points from segment data ( FROM = PART ) ------------ $
$   An unlimited number of lines identifying points at which input
$   boundary conditions are to be defined. If the actual input data is
$   not defined in the actual wave model run, the initial conditions
$   will be applied as constant boundary conditions. Each line contains:
$     Discrete grid counters (IX,IY) of the active point and a
$     connect flag. If this flag is true, and the present and previous
$     point are on a grid line or diagonal, all intermediate points
$     are also defined as boundary points.
$
$ using deal_with_complaint_a.m with THRESHOLD=0.49 :
     1    1 F
     1  102 T 
     1  344 F
     1  361 T
    70  361 T 
   132  361 F
   185  361 T 
   302  361 F
   357  361 T 
   211    1 F
     1    1 T
$ full list:
$    1   1  T
$    1 361  T
$  361 361  T
$  361   1  T
$    1   1  T
$
$  Close list by defining point (0,0) (mandatory)
$
    0   0  F
$
$
$ Excluded grid points from segment data ( FROM != PART )
$   First defined as lines, identical to the definition of the input
$   boundary points, and closed the same way.
$
    0   0  F
$
$   Second, define a point in a closed body of sea points to remove
$   the entire body of sea points. Also close by point (0,0)
$
    0   0
$
$ Output boundary points --------------------------------------------- $
$ Note, these do
$ not need to be defined for data transfer between grids in the multi
$ grid driver.
$
$  Close list by defining line with 0 points (mandatory)
$
    0. 0. 0. 0.  0
$
$ -------------------------------------------------------------------- $
$ End of input file                                                    $
$ -------------------------------------------------------------------- $
