! -------------------------------------------------------------------- !
! WAVEWATCH III - ww3_grid.nml - Grid pre-processing                   !
! -------------------------------------------------------------------- !

! -------------------------------------------------------------------- !
! Define the spectrum parameterization via SPECTRUM_NML namelist
! -------------------------------------------------------------------- !
&SPECTRUM_NML
  SPECTRUM%XFR       =  1.1
  SPECTRUM%FREQ1     =  0.03679
  SPECTRUM%NK        =  3
  SPECTRUM%NTH       =  12
/

! -------------------------------------------------------------------- !
! Define the run parameterization via RUN_NML namelist
! -------------------------------------------------------------------- !
&RUN_NML
  RUN%FLCX         =  T
  RUN%FLCY         =  T
  RUN%FLCTH        =  T
/

! -------------------------------------------------------------------- !
! Define the timesteps parameterization via TIMESTEPS_NML namelist
! -------------------------------------------------------------------- !
&TIMESTEPS_NML
  TIMESTEPS%DTMAX        =  550.
  TIMESTEPS%DTXY         =  550.
  TIMESTEPS%DTKTH        =  550.
  TIMESTEPS%DTMIN        =  550.
/

! -------------------------------------------------------------------- !
! Define the grid to preprocess via GRID_NML namelist
! -------------------------------------------------------------------- !
&GRID_NML
  GRID%NAME         =  '2-D PROPAGATION TEST 2.5c'
  GRID%NML          =  '../input/namelists_arcticsub.nml'
  GRID%TYPE         =  'CURV'
  GRID%COORD        =  'SPHE'
  GRID%CLOS         =  'NONE'
  GRID%ZLIM         =  -0.1
  GRID%DMIN         =  0.25
/

! -------------------------------------------------------------------- !
! Define the curvilinear grid type via CURV_NML namelist
! -------------------------------------------------------------------- !
&CURV_NML
  CURV%NX              =  107
  CURV%NY              =  121
  CURV%XCOORD%SF        =  1.0
  CURV%XCOORD%OFF       =  0.0
  CURV%XCOORD%FILENAME  =  './../input/lonsubLR.dat'
  CURV%YCOORD%SF        =  1.0
  CURV%YCOORD%OFF       =  0.0
  CURV%YCOORD%FILENAME  =  './../input/latsubLR.dat'
/

! -------------------------------------------------------------------- !
! Define the depth to preprocess via DEPTH_NML namelist
! -------------------------------------------------------------------- !
&DEPTH_NML
  DEPTH%SF        =  -1000.
  DEPTH%FILENAME  =  '../input/arcticsub.depth'
  DEPTH%IDLA      =  4
/

! -------------------------------------------------------------------- !
! Define the input boundary points via INBND_COUNT_NML and
!                                      INBND_POINT_NML namelist
! -------------------------------------------------------------------- !
&INBND_COUNT_NML
  INBND_COUNT%N_POINT    =  5
/

&INBND_POINT_NML
  INBND_POINT(1)         =  1 1 F
  INBND_POINT(2)         =  1 45 T
  INBND_POINT(3)         =  107 44 F
  INBND_POINT(4)         =  107 1 T
  INBND_POINT(5)         =  1 1 T
/

! -------------------------------------------------------------------- !
! WAVEWATCH III - end of namelist                                      !
! -------------------------------------------------------------------- !
