$ WAVEWATCH III Initial conditions input file
$ -------------------------------------------
$ ITYPE=1,  Gaussian / cosine power spectrum 
  1
$  fp        sip    thm  ncos  xm      six    ym    siy     hmax
$ 0.040469  0.0001    0. 200   0.0 -0.5000  75.0  0.5000    5.00
$ 0.040469  0.0001  330. 200 345.0 -0.5000  75.0  0.5000    5.00
$ 0.040469  0.0001  330. 100 345.0 -0.7500  75.0  0.7500    5.00
  0.040469  0.0001    0. 100   0.0 -0.7500  75.0  0.7500    5.00
$ 0.100000  0.0001  225. 100  2.50 -0.7500  2.50  0.7500    10.0 $ mww3_test_02
$ ITYPE=2, JONSWAP with Gaussian in space
$   2
$  alpha  fp       thm  gamma siga sigb xm      six    ym   siy   
$   0.0081 0.040469 000. 1.0   0.07 0.09 000.0 -0.5000 75.0 0.5000
