$ WAVEWATCH III Grid preprocessor input file
$ ------------------------------------------
  '2-D PROPAGATION TEST          '
$
   1.1 0.03679  3   12  0.
$
   F T T T F F
  1100.  1100. 1100.  1100.
$
$ &PRO2 DTIME = 64800. /
$ &PRO3 WDTHCG = 1.50, WDTHTH = 1.50 /
  &PRO2 DTIME = 0. /
  &PRO3 WDTHCG = 0., WDTHTH = 0. /
  &PRO4 RNFAC = 0., RSFAC = 0. /
$ &MISC GSHIFT = 1.0D-12 /
END OF NAMELISTS
$
  'RECT' T 'SMPL'
  360  21
  1.00  1.00  1.
   0.0  50.0 1.
  -0.1 0.25  10  -1000. 4 1 '(....)' 'UNIT' 'input'
   7560*1
$
  10  1 1 '(....)' 'PART' 'input'
$
      0     0   F
      0     0   F
      0     0
$
   0. 0. 0. 0.  0
