$ WAVEWATCH III Initial conditions input file
$ -------------------------------------------
$ ITYPE=1,  Gaussian / cosine power spectrum 
  1
$  fp        sip    thm  ncos  xm      six    ym    siy     hmax
  0.040469  0.0001    0. 100   0.0 -0.7500  75.0  0.7500    5.00
