$ WAVEWATCH III Grid preprocessor input file
$ ------------------------------------------
  '2-D PROPAGATION TEST 2.5c     '
$
   1.1 0.03679  3   12  0.
$
   F T T T F F
$ 360.  180.0  360.  360.
  550. 550. 550. 550.
$
$ &PRO2 DTIME = 64800. /
$ &PRO3 WDTHCG = 1.50, WDTHTH = 1.50 /
  &PRO2 DTIME = 0. /
  &PRO3 WDTHCG = 0., WDTHTH = 0. /
  &PRO4 RNFAC = 0., RSFAC = 0. /
$ &MISC GSHIFT = 1.0D-12 /
END OF NAMELISTS
$
  'CURV' T 'NONE'
  107 121
  20 1.0 0.0 1 1 '(....)' 'NAME' './../input/lonsubLR.dat'
  21 1.0 0.0 1 1 '(....)' 'NAME' './../input/latsubLR.dat'
  -0.1 0.25  10  -1000. 4 1 '(....)' 'UNIT' 'input'
   12947*1
$
  10  1 1 '(....)' 'PART' 'input'
$
     1    1 F
     1   45 T 
   107   44 F
   107    1 T
     1    1 T
$
$  Close list by defining point (0,0) (mandatory)
$
    0   0  F
$
$
$ Excluded grid points from segment data ( FROM != PART )
$   First defined as lines, identical to the definition of the input
$   boundary points, and closed the same way.
$
    0   0  F
$
$   Second, define a point in a closed body of sea points to remove
$   the entire body of sea points. Also close by point (0,0)
$
    0   0
$
$ Output boundary points --------------------------------------------- $
$ Close list by defining line with 0 points (mandatory)
$
    0. 0. 0. 0.  0
$
$ -------------------------------------------------------------------- $
$ End of input file                                                    $
$ -------------------------------------------------------------------- $
