$ WAVEWATCH III Grid preprocessor input file
$ -------------------------------------------
$ A global 0.5 deg output grid to be used
$ only for interpolating fields.
$ Grid not used for model computations
$
  'global out'
$
   1.1 0.03679  3   12  0.
$
  F T T T F F
$
  3600.  480. 1800.   30.
$
END OF NAMELISTS
$
  'RECT' T 'SMPL'
$
  720      361
  0.50     0.50   1.00
  0.0000    -90.0000        1.00
$
  -0.10   2.50  10  -1000.0  4  1 '(....)'  'UNIT'  'input'
$
  259920*1
$
  10 1 1 '(....)' 'PART' 'mapsta.inp'        
$
      0   0   F
      0   0   F
      0   0
$
      0.      0.    0.    0.       0
$
