$ -------------------------------------------------------------------- $
$ WAVEWATCH III Grid output post-processing                            $
$--------------------------------------------------------------------- $
$ Time, time increment and number of outputs
$
$ Just once (for depth)
  19680606 000000 10800 1
$
$ Request flags identifying fields as in ww3_shel input and section 2.4 of the manual.
$-------------------------------------------------------------------------------------------------------------------
$ (1) Forcing Fields
  T   
$ DPT CUR WND DT  WLV ICE TAU RHO IBG D50
  T   F   F   F   F   F   F   F   F   F
$ (2) Standard mean wave Parameters
  F
$ (3) Frequency-dependent parameters
  F
$ (4) Spectral Partition Parameters
  F
$ (5) Atmosphere-waves layer
  F          
$ (6) Wave-Ocean layer
  F
$ (7) Wave-bottom layer
  F
$ (8) Spectrum parameters
  F
$ (9) Numerical diagnostics
  F
$ (10) User defined
  F
$ 
$ Output type ITYPE [0,1,2,3]
  3 0
$ -------------------------------------------------------------------- $
$ ITYPE = 0, inventory of file.
$            No additional input, the above time range is ignored.
$
$ -------------------------------------------------------------------- $
$ ITYPE = 1, print plots.
$            IX,IY range and stride, flag for automatic scaling to
$            maximum value (otherwise fixed scaling),
$            vector component flag (dummy for scalar quantities).
$
$  1 360 1 1 181 1 F T
$
$ -------------------------------------------------------------------- $
$ ITYPE = 2, field statistics.
$            IX,IY range.
$
$ 1 360 1 181
$
$ -------------------------------------------------------------------- $
$ ITYPE = 3, transfer files.
$            IX, IY range, IDLA and IDFM as in ww3_grid.inp.
$            The additional option IDLA=5 gives ia longitude, lattitude 
$            and parameter value(s) per record (defined points only).
$
 1 999 1 999 1 1
$
$ For each field and time a new file is generated with the file name
$ ww3.yymmddhh.xxx, where yymmddhh is a conventional time idicator,
$ and xxx is a field identifier. The first record of the file contains
$ a file ID (C*13), the time in yyyymmdd hhmmss format, the lowest,
$ highest and number of longitudes (2R,I), id.  latitudes, the file
$ extension name (C*$), a scale factor (R), a unit identifier (C*10),
$ IDLA, IDFM, a format (C*11) and a number identifying undefined or
$ missing values (land, ice, etc.).  The field follows as defined by
$ IDFM and IDLA, defined as in the grid proprocessor. IDLA=5 is added
$ and gives a set of records containing the longitude, latitude and
$ parameter value. Note that the actual data is written as an integers.
$
$ -------------------------------------------------------------------- $
$ End of input file                                                    $
$ -------------------------------------------------------------------- $
