$ WAVEWATCH III Grid preprocessor input file
$ -------------------------------------------
  'global_720x361'
$
$ standard setup:  1.1  0.04177  25  36 5.
   1.1 0.03679  3   12  0.
$
$ Set model flags ----------------------------------------------- $
$  - FLDRY         Dry run (input/output only, no calculation).
$  - FLCX, FLCY    Activate X and Y component of propagation.
$  - FLCTH, FLCK   Activate direction and wavenumber shifts.
$  - FLSOU         Activate source terms.
$
$ standard setup:   F T T T F T 
  F T T T F F
$
$ Set parameters for numerical schemes -------------------------- $
$ - Time step information (this information is always read)
$     maximum global time step, maximum CFL time step for x-y and 
$     k-theta, minimum source term time step (all in seconds).
$
$ standard setup:  3600.  480. 1800.   30.
  500.  500.0  500.  500.
$
$ standard setup:  &SBT1 GAMMA = -0.038 /
 &MISC FLAGTR = 4, CICE0 = 0.25, CICEN = 0.75 /
 &PRO2 DTIME = 0. /
 &PRO3 WDTHCG = 0., WDTHTH = 0. /
END OF NAMELISTS
$
  'RECT' T 'SMPL'
$
  720      361
  30.00    30.00   60.00
  0.0000    -90.0000        1.00
  -0.10   2.50  12  0.001000  1  1 (....)  NAME  '../input/bot.dat'
$
$ If sub-grid information is available as indicated by FLAGTR above,
$ additional input to define this is needed below. In such cases a
$ field of fractional obstructions at or between grid points needs to
$ be supplied.  First the location and format of the data is defined
$ by (as above) :
$  - Unit number of file (can be 10, and/or identical to bottem depth
$    unit), scale factor for fractional obstruction, IDLA, IDFM,
$    format for formatted read, FROM and filename
$
$   10  0.2       3  1 '(....)' 'NAME' 'obstr.inp' {example}
    13  0.010000  1  1 '(....)' 'NAME'  '../input/obs.dat'
$
$ FNMOC setup:  10 3 1 '(....)' 'PART' 'mapsta.inp' ! note that with this setup, there is no file mapsta.inp read in 
  10 1 1 '(....)' 'PART' 'input'        
$
      0   0   F
      0   0   F
      0   0
$
$  Close list by defining line with 0 points (mandatory)
$
      0.      0.    0.    0.       0
$
$ End of input file
