$WAVEWATCH III SHADOW OBSTRUCTIONS
57
$ ilon ilat of the cell. lon: 7.80206835, 30.39962121
16   1
$ sizes of the cell in km
    67.007       72.209       74.460       77.356       78.461       75.979       73.387       69.973       67.404       64.107       60.459       62.636       67.007       72.209       74.460       77.356       78.461       75.979       73.387       69.973       67.404       64.107       60.459       62.636
$ mean alpha: 0.815133633082
$ mean beta: 0.908614155058
$alpha by ik, ith
0.97  0.91  0.85  0.79  0.80  0.82  0.83  0.81  0.79  0.76  0.78  0.81  0.83  0.79  0.75  0.72  0.75  0.79  0.83  0.82  0.80  0.79  0.85  0.91
0.97  0.91  0.85  0.79  0.80  0.82  0.83  0.81  0.79  0.76  0.78  0.81  0.83  0.79  0.75  0.72  0.75  0.79  0.83  0.82  0.80  0.79  0.85  0.91
0.97  0.91  0.85  0.79  0.80  0.82  0.83  0.81  0.79  0.76  0.78  0.81  0.83  0.79  0.75  0.72  0.75  0.79  0.83  0.82  0.80  0.79  0.85  0.91
0.97  0.91  0.85  0.79  0.80  0.82  0.83  0.81  0.79  0.76  0.78  0.81  0.83  0.79  0.75  0.72  0.75  0.79  0.83  0.82  0.80  0.79  0.85  0.91
0.97  0.91  0.85  0.79  0.80  0.82  0.83  0.81  0.79  0.76  0.78  0.81  0.83  0.79  0.75  0.72  0.75  0.79  0.83  0.82  0.80  0.79  0.85  0.91
0.97  0.91  0.85  0.79  0.80  0.82  0.83  0.81  0.79  0.76  0.78  0.81  0.83  0.79  0.75  0.72  0.75  0.79  0.83  0.82  0.80  0.79  0.85  0.91
0.97  0.91  0.85  0.79  0.80  0.82  0.83  0.81  0.79  0.76  0.78  0.81  0.83  0.79  0.75  0.72  0.75  0.79  0.83  0.82  0.80  0.79  0.85  0.91
0.97  0.91  0.85  0.79  0.80  0.82  0.83  0.81  0.79  0.76  0.78  0.81  0.83  0.79  0.75  0.72  0.75  0.79  0.83  0.82  0.80  0.79  0.85  0.91
0.97  0.91  0.85  0.79  0.80  0.82  0.83  0.81  0.79  0.76  0.78  0.81  0.83  0.79  0.75  0.72  0.75  0.79  0.83  0.82  0.80  0.79  0.85  0.91
0.97  0.91  0.85  0.79  0.80  0.82  0.83  0.81  0.79  0.76  0.78  0.81  0.83  0.79  0.75  0.72  0.75  0.79  0.83  0.82  0.80  0.79  0.85  0.91
0.97  0.91  0.85  0.79  0.80  0.82  0.83  0.81  0.79  0.76  0.78  0.81  0.83  0.79  0.75  0.72  0.75  0.79  0.83  0.82  0.80  0.79  0.85  0.91
0.97  0.91  0.85  0.79  0.80  0.82  0.83  0.81  0.79  0.76  0.78  0.81  0.83  0.79  0.75  0.72  0.75  0.79  0.83  0.82  0.80  0.79  0.85  0.91
0.97  0.91  0.85  0.79  0.80  0.82  0.83  0.81  0.79  0.76  0.78  0.81  0.83  0.79  0.75  0.72  0.75  0.79  0.83  0.82  0.80  0.79  0.85  0.91
0.97  0.91  0.85  0.79  0.80  0.82  0.83  0.81  0.79  0.76  0.78  0.81  0.83  0.79  0.75  0.72  0.75  0.79  0.83  0.82  0.80  0.79  0.85  0.91
0.97  0.91  0.85  0.79  0.80  0.82  0.83  0.81  0.79  0.76  0.78  0.81  0.83  0.79  0.75  0.72  0.75  0.79  0.83  0.82  0.80  0.79  0.85  0.91
0.97  0.91  0.85  0.79  0.80  0.82  0.83  0.81  0.79  0.76  0.78  0.81  0.83  0.79  0.75  0.72  0.75  0.79  0.83  0.82  0.80  0.79  0.85  0.91
0.97  0.91  0.85  0.79  0.80  0.82  0.83  0.81  0.79  0.76  0.78  0.81  0.83  0.79  0.75  0.72  0.75  0.79  0.83  0.82  0.80  0.79  0.85  0.91
0.97  0.91  0.85  0.79  0.80  0.82  0.83  0.81  0.79  0.76  0.78  0.81  0.83  0.79  0.75  0.72  0.75  0.79  0.83  0.82  0.80  0.79  0.85  0.91
0.97  0.91  0.85  0.79  0.80  0.82  0.83  0.81  0.79  0.76  0.78  0.81  0.83  0.79  0.75  0.72  0.75  0.79  0.83  0.82  0.80  0.79  0.85  0.91
0.97  0.91  0.85  0.79  0.80  0.82  0.83  0.81  0.79  0.76  0.78  0.81  0.83  0.79  0.75  0.72  0.75  0.79  0.83  0.82  0.80  0.79  0.85  0.91
0.97  0.91  0.85  0.79  0.80  0.82  0.83  0.81  0.79  0.76  0.78  0.81  0.83  0.79  0.75  0.72  0.75  0.79  0.83  0.82  0.80  0.79  0.85  0.91
0.97  0.91  0.85  0.79  0.80  0.82  0.83  0.81  0.79  0.76  0.78  0.81  0.83  0.79  0.75  0.72  0.75  0.79  0.83  0.82  0.80  0.79  0.85  0.91
0.97  0.91  0.85  0.79  0.80  0.82  0.83  0.81  0.79  0.76  0.78  0.81  0.83  0.79  0.75  0.72  0.75  0.79  0.83  0.82  0.80  0.79  0.85  0.91
0.97  0.91  0.85  0.79  0.80  0.82  0.83  0.81  0.79  0.76  0.78  0.81  0.83  0.79  0.75  0.72  0.75  0.79  0.83  0.82  0.80  0.79  0.85  0.91
0.97  0.91  0.85  0.79  0.80  0.82  0.83  0.81  0.79  0.76  0.78  0.81  0.83  0.79  0.75  0.72  0.75  0.79  0.83  0.82  0.80  0.79  0.85  0.91
$beta by ik, ith
0.99  0.98  0.96  0.94  0.93  0.91  0.90  0.90  0.90  0.90  0.91  0.93  0.94  0.92  0.89  0.87  0.86  0.85  0.83  0.85  0.87  0.89  0.93  0.96
0.99  0.98  0.96  0.94  0.93  0.91  0.90  0.90  0.90  0.90  0.91  0.93  0.94  0.92  0.89  0.87  0.86  0.85  0.83  0.85  0.87  0.89  0.93  0.96
0.99  0.98  0.96  0.94  0.93  0.91  0.90  0.90  0.90  0.90  0.91  0.93  0.94  0.92  0.89  0.87  0.86  0.85  0.83  0.85  0.87  0.89  0.93  0.96
0.99  0.98  0.96  0.94  0.93  0.91  0.90  0.90  0.90  0.90  0.91  0.93  0.94  0.92  0.89  0.87  0.86  0.85  0.83  0.85  0.87  0.89  0.93  0.96
0.99  0.98  0.96  0.94  0.93  0.91  0.90  0.90  0.90  0.90  0.91  0.93  0.94  0.92  0.89  0.87  0.86  0.85  0.83  0.85  0.87  0.89  0.93  0.96
0.99  0.98  0.96  0.94  0.93  0.91  0.90  0.90  0.90  0.90  0.91  0.93  0.94  0.92  0.89  0.87  0.86  0.85  0.83  0.85  0.87  0.89  0.93  0.96
0.99  0.98  0.96  0.94  0.93  0.91  0.90  0.90  0.90  0.90  0.91  0.93  0.94  0.92  0.89  0.87  0.86  0.85  0.83  0.85  0.87  0.89  0.93  0.96
0.99  0.98  0.96  0.94  0.93  0.91  0.90  0.90  0.90  0.90  0.91  0.93  0.94  0.92  0.89  0.87  0.86  0.85  0.83  0.85  0.87  0.89  0.93  0.96
0.99  0.98  0.96  0.94  0.93  0.91  0.90  0.90  0.90  0.90  0.91  0.93  0.94  0.92  0.89  0.87  0.86  0.85  0.83  0.85  0.87  0.89  0.93  0.96
0.99  0.98  0.96  0.94  0.93  0.91  0.90  0.90  0.90  0.90  0.91  0.93  0.94  0.92  0.89  0.87  0.86  0.85  0.83  0.85  0.87  0.89  0.93  0.96
0.99  0.98  0.96  0.94  0.93  0.91  0.90  0.90  0.90  0.90  0.91  0.93  0.94  0.92  0.89  0.87  0.86  0.85  0.83  0.85  0.87  0.89  0.93  0.96
0.99  0.98  0.96  0.94  0.93  0.91  0.90  0.90  0.90  0.90  0.91  0.93  0.94  0.92  0.89  0.87  0.86  0.85  0.83  0.85  0.87  0.89  0.93  0.96
0.99  0.98  0.96  0.94  0.93  0.91  0.90  0.90  0.90  0.90  0.91  0.93  0.94  0.92  0.89  0.87  0.86  0.85  0.83  0.85  0.87  0.89  0.93  0.96
0.99  0.98  0.96  0.94  0.93  0.91  0.90  0.90  0.90  0.90  0.91  0.93  0.94  0.92  0.89  0.87  0.86  0.85  0.83  0.85  0.87  0.89  0.93  0.96
0.99  0.98  0.96  0.94  0.93  0.91  0.90  0.90  0.90  0.90  0.91  0.93  0.94  0.92  0.89  0.87  0.86  0.85  0.83  0.85  0.87  0.89  0.93  0.96
0.99  0.98  0.96  0.94  0.93  0.91  0.90  0.90  0.90  0.90  0.91  0.93  0.94  0.92  0.89  0.87  0.86  0.85  0.83  0.85  0.87  0.89  0.93  0.96
0.99  0.98  0.96  0.94  0.93  0.91  0.90  0.90  0.90  0.90  0.91  0.93  0.94  0.92  0.89  0.87  0.86  0.85  0.83  0.85  0.87  0.89  0.93  0.96
0.99  0.98  0.96  0.94  0.93  0.91  0.90  0.90  0.90  0.90  0.91  0.93  0.94  0.92  0.89  0.87  0.86  0.85  0.83  0.85  0.87  0.89  0.93  0.96
0.99  0.98  0.96  0.94  0.93  0.91  0.90  0.90  0.90  0.90  0.91  0.93  0.94  0.92  0.89  0.87  0.86  0.85  0.83  0.85  0.87  0.89  0.93  0.96
0.99  0.98  0.96  0.94  0.93  0.91  0.90  0.90  0.90  0.90  0.91  0.93  0.94  0.92  0.89  0.87  0.86  0.85  0.83  0.85  0.87  0.89  0.93  0.96
0.99  0.98  0.96  0.94  0.93  0.91  0.90  0.90  0.90  0.90  0.91  0.93  0.94  0.92  0.89  0.87  0.86  0.85  0.83  0.85  0.87  0.89  0.93  0.96
0.99  0.98  0.96  0.94  0.93  0.91  0.90  0.90  0.90  0.90  0.91  0.93  0.94  0.92  0.89  0.87  0.86  0.85  0.83  0.85  0.87  0.89  0.93  0.96
0.99  0.98  0.96  0.94  0.93  0.91  0.90  0.90  0.90  0.90  0.91  0.93  0.94  0.92  0.89  0.87  0.86  0.85  0.83  0.85  0.87  0.89  0.93  0.96
0.99  0.98  0.96  0.94  0.93  0.91  0.90  0.90  0.90  0.90  0.91  0.93  0.94  0.92  0.89  0.87  0.86  0.85  0.83  0.85  0.87  0.89  0.93  0.96
0.99  0.98  0.96  0.94  0.93  0.91  0.90  0.90  0.90  0.90  0.91  0.93  0.94  0.92  0.89  0.87  0.86  0.85  0.83  0.85  0.87  0.89  0.93  0.96
$ ilon ilat of the cell. lon: 7.22093353, 31.60542966
32   1
$ sizes of the cell in km
    70.923       66.663       63.424       62.866       62.898       62.458       64.417       65.805       66.696       69.074       72.544       75.395       70.923       66.663       63.424       62.866       62.898       62.458       64.417       65.805       66.696       69.074       72.544       75.395
$ mean alpha: 0.751941237143
$ mean beta: 0.787243974973
$alpha by ik, ith
1.00  1.00  1.00  1.00  1.00  1.00  1.00  0.69  0.38  0.08  0.17  0.27  0.37  0.44  0.50  0.57  0.71  0.86  1.00  1.00  1.00  1.00  1.00  1.00
1.00  1.00  1.00  1.00  1.00  1.00  1.00  0.69  0.38  0.08  0.17  0.27  0.37  0.44  0.50  0.57  0.71  0.86  1.00  1.00  1.00  1.00  1.00  1.00
1.00  1.00  1.00  1.00  1.00  1.00  1.00  0.69  0.38  0.08  0.17  0.27  0.37  0.44  0.50  0.57  0.71  0.86  1.00  1.00  1.00  1.00  1.00  1.00
1.00  1.00  1.00  1.00  1.00  1.00  1.00  0.69  0.38  0.08  0.17  0.27  0.37  0.44  0.50  0.57  0.71  0.86  1.00  1.00  1.00  1.00  1.00  1.00
1.00  1.00  1.00  1.00  1.00  1.00  1.00  0.69  0.38  0.08  0.17  0.27  0.37  0.44  0.50  0.57  0.71  0.86  1.00  1.00  1.00  1.00  1.00  1.00
1.00  1.00  1.00  1.00  1.00  1.00  1.00  0.69  0.38  0.08  0.17  0.27  0.37  0.44  0.50  0.57  0.71  0.86  1.00  1.00  1.00  1.00  1.00  1.00
1.00  1.00  1.00  1.00  1.00  1.00  1.00  0.69  0.38  0.08  0.17  0.27  0.37  0.44  0.50  0.57  0.71  0.86  1.00  1.00  1.00  1.00  1.00  1.00
1.00  1.00  1.00  1.00  1.00  1.00  1.00  0.69  0.38  0.08  0.17  0.27  0.37  0.44  0.50  0.57  0.71  0.86  1.00  1.00  1.00  1.00  1.00  1.00
1.00  1.00  1.00  1.00  1.00  1.00  1.00  0.69  0.38  0.08  0.17  0.27  0.37  0.44  0.50  0.57  0.71  0.86  1.00  1.00  1.00  1.00  1.00  1.00
1.00  1.00  1.00  1.00  1.00  1.00  1.00  0.69  0.38  0.08  0.17  0.27  0.37  0.44  0.50  0.57  0.71  0.86  1.00  1.00  1.00  1.00  1.00  1.00
1.00  1.00  1.00  1.00  1.00  1.00  1.00  0.69  0.38  0.08  0.17  0.27  0.37  0.44  0.50  0.57  0.71  0.86  1.00  1.00  1.00  1.00  1.00  1.00
1.00  1.00  1.00  1.00  1.00  1.00  1.00  0.69  0.38  0.08  0.17  0.27  0.37  0.44  0.50  0.57  0.71  0.86  1.00  1.00  1.00  1.00  1.00  1.00
1.00  1.00  1.00  1.00  1.00  1.00  1.00  0.69  0.38  0.08  0.17  0.27  0.37  0.44  0.50  0.57  0.71  0.86  1.00  1.00  1.00  1.00  1.00  1.00
1.00  1.00  1.00  1.00  1.00  1.00  1.00  0.69  0.38  0.08  0.17  0.27  0.37  0.44  0.50  0.57  0.71  0.86  1.00  1.00  1.00  1.00  1.00  1.00
1.00  1.00  1.00  1.00  1.00  1.00  1.00  0.69  0.38  0.08  0.17  0.27  0.37  0.44  0.50  0.57  0.71  0.86  1.00  1.00  1.00  1.00  1.00  1.00
1.00  1.00  1.00  1.00  1.00  1.00  1.00  0.69  0.38  0.08  0.17  0.27  0.37  0.44  0.50  0.57  0.71  0.86  1.00  1.00  1.00  1.00  1.00  1.00
1.00  1.00  1.00  1.00  1.00  1.00  1.00  0.69  0.38  0.08  0.17  0.27  0.37  0.44  0.50  0.57  0.71  0.86  1.00  1.00  1.00  1.00  1.00  1.00
1.00  1.00  1.00  1.00  1.00  1.00  1.00  0.69  0.38  0.08  0.17  0.27  0.37  0.44  0.50  0.57  0.71  0.86  1.00  1.00  1.00  1.00  1.00  1.00
1.00  1.00  1.00  1.00  1.00  1.00  1.00  0.69  0.38  0.08  0.17  0.27  0.37  0.44  0.50  0.57  0.71  0.86  1.00  1.00  1.00  1.00  1.00  1.00
1.00  1.00  1.00  1.00  1.00  1.00  1.00  0.69  0.38  0.08  0.17  0.27  0.37  0.44  0.50  0.57  0.71  0.86  1.00  1.00  1.00  1.00  1.00  1.00
1.00  1.00  1.00  1.00  1.00  1.00  1.00  0.69  0.38  0.08  0.17  0.27  0.37  0.44  0.50  0.57  0.71  0.86  1.00  1.00  1.00  1.00  1.00  1.00
1.00  1.00  1.00  1.00  1.00  1.00  1.00  0.69  0.38  0.08  0.17  0.27  0.37  0.44  0.50  0.57  0.71  0.86  1.00  1.00  1.00  1.00  1.00  1.00
1.00  1.00  1.00  1.00  1.00  1.00  1.00  0.69  0.38  0.08  0.17  0.27  0.37  0.44  0.50  0.57  0.71  0.86  1.00  1.00  1.00  1.00  1.00  1.00
1.00  1.00  1.00  1.00  1.00  1.00  1.00  0.69  0.38  0.08  0.17  0.27  0.37  0.44  0.50  0.57  0.71  0.86  1.00  1.00  1.00  1.00  1.00  1.00
1.00  1.00  1.00  1.00  1.00  1.00  1.00  0.69  0.38  0.08  0.17  0.27  0.37  0.44  0.50  0.57  0.71  0.86  1.00  1.00  1.00  1.00  1.00  1.00
$beta by ik, ith
1.00  1.00  1.00  1.00  1.00  1.00  1.00  0.73  0.47  0.20  0.30  0.40  0.49  0.53  0.57  0.60  0.74  0.87  1.00  1.00  1.00  1.00  1.00  1.00
1.00  1.00  1.00  1.00  1.00  1.00  1.00  0.73  0.47  0.20  0.30  0.40  0.49  0.53  0.57  0.60  0.74  0.87  1.00  1.00  1.00  1.00  1.00  1.00
1.00  1.00  1.00  1.00  1.00  1.00  1.00  0.73  0.47  0.20  0.30  0.40  0.49  0.53  0.57  0.60  0.74  0.87  1.00  1.00  1.00  1.00  1.00  1.00
1.00  1.00  1.00  1.00  1.00  1.00  1.00  0.73  0.47  0.20  0.30  0.40  0.49  0.53  0.57  0.60  0.74  0.87  1.00  1.00  1.00  1.00  1.00  1.00
1.00  1.00  1.00  1.00  1.00  1.00  1.00  0.73  0.47  0.20  0.30  0.40  0.49  0.53  0.57  0.60  0.74  0.87  1.00  1.00  1.00  1.00  1.00  1.00
1.00  1.00  1.00  1.00  1.00  1.00  1.00  0.73  0.47  0.20  0.30  0.40  0.49  0.53  0.57  0.60  0.74  0.87  1.00  1.00  1.00  1.00  1.00  1.00
1.00  1.00  1.00  1.00  1.00  1.00  1.00  0.73  0.47  0.20  0.30  0.40  0.49  0.53  0.57  0.60  0.74  0.87  1.00  1.00  1.00  1.00  1.00  1.00
1.00  1.00  1.00  1.00  1.00  1.00  1.00  0.73  0.47  0.20  0.30  0.40  0.49  0.53  0.57  0.60  0.74  0.87  1.00  1.00  1.00  1.00  1.00  1.00
1.00  1.00  1.00  1.00  1.00  1.00  1.00  0.73  0.47  0.20  0.30  0.40  0.49  0.53  0.57  0.60  0.74  0.87  1.00  1.00  1.00  1.00  1.00  1.00
1.00  1.00  1.00  1.00  1.00  1.00  1.00  0.73  0.47  0.20  0.30  0.40  0.49  0.53  0.57  0.60  0.74  0.87  1.00  1.00  1.00  1.00  1.00  1.00
1.00  1.00  1.00  1.00  1.00  1.00  1.00  0.73  0.47  0.20  0.30  0.40  0.49  0.53  0.57  0.60  0.74  0.87  1.00  1.00  1.00  1.00  1.00  1.00
1.00  1.00  1.00  1.00  1.00  1.00  1.00  0.73  0.47  0.20  0.30  0.40  0.49  0.53  0.57  0.60  0.74  0.87  1.00  1.00  1.00  1.00  1.00  1.00
1.00  1.00  1.00  1.00  1.00  1.00  1.00  0.73  0.47  0.20  0.30  0.40  0.49  0.53  0.57  0.60  0.74  0.87  1.00  1.00  1.00  1.00  1.00  1.00
1.00  1.00  1.00  1.00  1.00  1.00  1.00  0.73  0.47  0.20  0.30  0.40  0.49  0.53  0.57  0.60  0.74  0.87  1.00  1.00  1.00  1.00  1.00  1.00
1.00  1.00  1.00  1.00  1.00  1.00  1.00  0.73  0.47  0.20  0.30  0.40  0.49  0.53  0.57  0.60  0.74  0.87  1.00  1.00  1.00  1.00  1.00  1.00
1.00  1.00  1.00  1.00  1.00  1.00  1.00  0.73  0.47  0.20  0.30  0.40  0.49  0.53  0.57  0.60  0.74  0.87  1.00  1.00  1.00  1.00  1.00  1.00
1.00  1.00  1.00  1.00  1.00  1.00  1.00  0.73  0.47  0.20  0.30  0.40  0.49  0.53  0.57  0.60  0.74  0.87  1.00  1.00  1.00  1.00  1.00  1.00
1.00  1.00  1.00  1.00  1.00  1.00  1.00  0.73  0.47  0.20  0.30  0.40  0.49  0.53  0.57  0.60  0.74  0.87  1.00  1.00  1.00  1.00  1.00  1.00
1.00  1.00  1.00  1.00  1.00  1.00  1.00  0.73  0.47  0.20  0.30  0.40  0.49  0.53  0.57  0.60  0.74  0.87  1.00  1.00  1.00  1.00  1.00  1.00
1.00  1.00  1.00  1.00  1.00  1.00  1.00  0.73  0.47  0.20  0.30  0.40  0.49  0.53  0.57  0.60  0.74  0.87  1.00  1.00  1.00  1.00  1.00  1.00
1.00  1.00  1.00  1.00  1.00  1.00  1.00  0.73  0.47  0.20  0.30  0.40  0.49  0.53  0.57  0.60  0.74  0.87  1.00  1.00  1.00  1.00  1.00  1.00
1.00  1.00  1.00  1.00  1.00  1.00  1.00  0.73  0.47  0.20  0.30  0.40  0.49  0.53  0.57  0.60  0.74  0.87  1.00  1.00  1.00  1.00  1.00  1.00
1.00  1.00  1.00  1.00  1.00  1.00  1.00  0.73  0.47  0.20  0.30  0.40  0.49  0.53  0.57  0.60  0.74  0.87  1.00  1.00  1.00  1.00  1.00  1.00
1.00  1.00  1.00  1.00  1.00  1.00  1.00  0.73  0.47  0.20  0.30  0.40  0.49  0.53  0.57  0.60  0.74  0.87  1.00  1.00  1.00  1.00  1.00  1.00
1.00  1.00  1.00  1.00  1.00  1.00  1.00  0.73  0.47  0.20  0.30  0.40  0.49  0.53  0.57  0.60  0.74  0.87  1.00  1.00  1.00  1.00  1.00  1.00
$ ilon ilat of the cell. lon: 6.98820082, 32.27847505
37   1
$ sizes of the cell in km
    55.426       56.841       57.361       58.056       57.926       57.674       56.785       55.659       55.348       54.562       54.159       54.489       55.426       56.841       57.361       58.056       57.926       57.674       56.785       55.659       55.348       54.562       54.159       54.489
$ mean alpha: 0.942427161286
$ mean beta: 0.942938130139
$alpha by ik, ith
1.00  1.00  1.00  1.00  1.00  1.00  1.00  1.00  1.00  1.00  0.92  0.84  0.77  0.77  0.77  0.77  0.85  0.92  1.00  1.00  1.00  1.00  1.00  1.00
1.00  1.00  1.00  1.00  1.00  1.00  1.00  1.00  1.00  1.00  0.92  0.84  0.77  0.77  0.77  0.77  0.85  0.92  1.00  1.00  1.00  1.00  1.00  1.00
1.00  1.00  1.00  1.00  1.00  1.00  1.00  1.00  1.00  1.00  0.92  0.84  0.77  0.77  0.77  0.77  0.85  0.92  1.00  1.00  1.00  1.00  1.00  1.00
1.00  1.00  1.00  1.00  1.00  1.00  1.00  1.00  1.00  1.00  0.92  0.84  0.77  0.77  0.77  0.77  0.85  0.92  1.00  1.00  1.00  1.00  1.00  1.00
1.00  1.00  1.00  1.00  1.00  1.00  1.00  1.00  1.00  1.00  0.92  0.84  0.77  0.77  0.77  0.77  0.85  0.92  1.00  1.00  1.00  1.00  1.00  1.00
1.00  1.00  1.00  1.00  1.00  1.00  1.00  1.00  1.00  1.00  0.92  0.84  0.77  0.77  0.77  0.77  0.85  0.92  1.00  1.00  1.00  1.00  1.00  1.00
1.00  1.00  1.00  1.00  1.00  1.00  1.00  1.00  1.00  1.00  0.92  0.84  0.77  0.77  0.77  0.77  0.85  0.92  1.00  1.00  1.00  1.00  1.00  1.00
1.00  1.00  1.00  1.00  1.00  1.00  1.00  1.00  1.00  1.00  0.92  0.84  0.77  0.77  0.77  0.77  0.85  0.92  1.00  1.00  1.00  1.00  1.00  1.00
1.00  1.00  1.00  1.00  1.00  1.00  1.00  1.00  1.00  1.00  0.92  0.84  0.77  0.77  0.77  0.77  0.85  0.92  1.00  1.00  1.00  1.00  1.00  1.00
1.00  1.00  1.00  1.00  1.00  1.00  1.00  1.00  1.00  1.00  0.92  0.84  0.77  0.77  0.77  0.77  0.85  0.92  1.00  1.00  1.00  1.00  1.00  1.00
1.00  1.00  1.00  1.00  1.00  1.00  1.00  1.00  1.00  1.00  0.92  0.84  0.77  0.77  0.77  0.77  0.85  0.92  1.00  1.00  1.00  1.00  1.00  1.00
1.00  1.00  1.00  1.00  1.00  1.00  1.00  1.00  1.00  1.00  0.92  0.84  0.77  0.77  0.77  0.77  0.85  0.92  1.00  1.00  1.00  1.00  1.00  1.00
1.00  1.00  1.00  1.00  1.00  1.00  1.00  1.00  1.00  1.00  0.92  0.84  0.77  0.77  0.77  0.77  0.85  0.92  1.00  1.00  1.00  1.00  1.00  1.00
1.00  1.00  1.00  1.00  1.00  1.00  1.00  1.00  1.00  1.00  0.92  0.84  0.77  0.77  0.77  0.77  0.85  0.92  1.00  1.00  1.00  1.00  1.00  1.00
1.00  1.00  1.00  1.00  1.00  1.00  1.00  1.00  1.00  1.00  0.92  0.84  0.77  0.77  0.77  0.77  0.85  0.92  1.00  1.00  1.00  1.00  1.00  1.00
1.00  1.00  1.00  1.00  1.00  1.00  1.00  1.00  1.00  1.00  0.92  0.84  0.77  0.77  0.77  0.77  0.85  0.92  1.00  1.00  1.00  1.00  1.00  1.00
1.00  1.00  1.00  1.00  1.00  1.00  1.00  1.00  1.00  1.00  0.92  0.84  0.77  0.77  0.77  0.77  0.85  0.92  1.00  1.00  1.00  1.00  1.00  1.00
1.00  1.00  1.00  1.00  1.00  1.00  1.00  1.00  1.00  1.00  0.92  0.84  0.77  0.77  0.77  0.77  0.85  0.92  1.00  1.00  1.00  1.00  1.00  1.00
1.00  1.00  1.00  1.00  1.00  1.00  1.00  1.00  1.00  1.00  0.92  0.84  0.77  0.77  0.77  0.77  0.85  0.92  1.00  1.00  1.00  1.00  1.00  1.00
1.00  1.00  1.00  1.00  1.00  1.00  1.00  1.00  1.00  1.00  0.92  0.84  0.77  0.77  0.77  0.77  0.85  0.92  1.00  1.00  1.00  1.00  1.00  1.00
1.00  1.00  1.00  1.00  1.00  1.00  1.00  1.00  1.00  1.00  0.92  0.84  0.77  0.77  0.77  0.77  0.85  0.92  1.00  1.00  1.00  1.00  1.00  1.00
1.00  1.00  1.00  1.00  1.00  1.00  1.00  1.00  1.00  1.00  0.92  0.84  0.77  0.77  0.77  0.77  0.85  0.92  1.00  1.00  1.00  1.00  1.00  1.00
1.00  1.00  1.00  1.00  1.00  1.00  1.00  1.00  1.00  1.00  0.92  0.84  0.77  0.77  0.77  0.77  0.85  0.92  1.00  1.00  1.00  1.00  1.00  1.00
1.00  1.00  1.00  1.00  1.00  1.00  1.00  1.00  1.00  1.00  0.92  0.84  0.77  0.77  0.77  0.77  0.85  0.92  1.00  1.00  1.00  1.00  1.00  1.00
1.00  1.00  1.00  1.00  1.00  1.00  1.00  1.00  1.00  1.00  0.92  0.84  0.77  0.77  0.77  0.77  0.85  0.92  1.00  1.00  1.00  1.00  1.00  1.00
$beta by ik, ith
1.00  1.00  1.00  1.00  1.00  1.00  1.00  1.00  1.00  1.00  0.92  0.84  0.77  0.77  0.77  0.78  0.85  0.93  1.00  1.00  1.00  1.00  1.00  1.00
1.00  1.00  1.00  1.00  1.00  1.00  1.00  1.00  1.00  1.00  0.92  0.84  0.77  0.77  0.77  0.78  0.85  0.93  1.00  1.00  1.00  1.00  1.00  1.00
1.00  1.00  1.00  1.00  1.00  1.00  1.00  1.00  1.00  1.00  0.92  0.84  0.77  0.77  0.77  0.78  0.85  0.93  1.00  1.00  1.00  1.00  1.00  1.00
1.00  1.00  1.00  1.00  1.00  1.00  1.00  1.00  1.00  1.00  0.92  0.84  0.77  0.77  0.77  0.78  0.85  0.93  1.00  1.00  1.00  1.00  1.00  1.00
1.00  1.00  1.00  1.00  1.00  1.00  1.00  1.00  1.00  1.00  0.92  0.84  0.77  0.77  0.77  0.78  0.85  0.93  1.00  1.00  1.00  1.00  1.00  1.00
1.00  1.00  1.00  1.00  1.00  1.00  1.00  1.00  1.00  1.00  0.92  0.84  0.77  0.77  0.77  0.78  0.85  0.93  1.00  1.00  1.00  1.00  1.00  1.00
1.00  1.00  1.00  1.00  1.00  1.00  1.00  1.00  1.00  1.00  0.92  0.84  0.77  0.77  0.77  0.78  0.85  0.93  1.00  1.00  1.00  1.00  1.00  1.00
1.00  1.00  1.00  1.00  1.00  1.00  1.00  1.00  1.00  1.00  0.92  0.84  0.77  0.77  0.77  0.78  0.85  0.93  1.00  1.00  1.00  1.00  1.00  1.00
1.00  1.00  1.00  1.00  1.00  1.00  1.00  1.00  1.00  1.00  0.92  0.84  0.77  0.77  0.77  0.78  0.85  0.93  1.00  1.00  1.00  1.00  1.00  1.00
1.00  1.00  1.00  1.00  1.00  1.00  1.00  1.00  1.00  1.00  0.92  0.84  0.77  0.77  0.77  0.78  0.85  0.93  1.00  1.00  1.00  1.00  1.00  1.00
1.00  1.00  1.00  1.00  1.00  1.00  1.00  1.00  1.00  1.00  0.92  0.84  0.77  0.77  0.77  0.78  0.85  0.93  1.00  1.00  1.00  1.00  1.00  1.00
1.00  1.00  1.00  1.00  1.00  1.00  1.00  1.00  1.00  1.00  0.92  0.84  0.77  0.77  0.77  0.78  0.85  0.93  1.00  1.00  1.00  1.00  1.00  1.00
1.00  1.00  1.00  1.00  1.00  1.00  1.00  1.00  1.00  1.00  0.92  0.84  0.77  0.77  0.77  0.78  0.85  0.93  1.00  1.00  1.00  1.00  1.00  1.00
1.00  1.00  1.00  1.00  1.00  1.00  1.00  1.00  1.00  1.00  0.92  0.84  0.77  0.77  0.77  0.78  0.85  0.93  1.00  1.00  1.00  1.00  1.00  1.00
1.00  1.00  1.00  1.00  1.00  1.00  1.00  1.00  1.00  1.00  0.92  0.84  0.77  0.77  0.77  0.78  0.85  0.93  1.00  1.00  1.00  1.00  1.00  1.00
1.00  1.00  1.00  1.00  1.00  1.00  1.00  1.00  1.00  1.00  0.92  0.84  0.77  0.77  0.77  0.78  0.85  0.93  1.00  1.00  1.00  1.00  1.00  1.00
1.00  1.00  1.00  1.00  1.00  1.00  1.00  1.00  1.00  1.00  0.92  0.84  0.77  0.77  0.77  0.78  0.85  0.93  1.00  1.00  1.00  1.00  1.00  1.00
1.00  1.00  1.00  1.00  1.00  1.00  1.00  1.00  1.00  1.00  0.92  0.84  0.77  0.77  0.77  0.78  0.85  0.93  1.00  1.00  1.00  1.00  1.00  1.00
1.00  1.00  1.00  1.00  1.00  1.00  1.00  1.00  1.00  1.00  0.92  0.84  0.77  0.77  0.77  0.78  0.85  0.93  1.00  1.00  1.00  1.00  1.00  1.00
1.00  1.00  1.00  1.00  1.00  1.00  1.00  1.00  1.00  1.00  0.92  0.84  0.77  0.77  0.77  0.78  0.85  0.93  1.00  1.00  1.00  1.00  1.00  1.00
1.00  1.00  1.00  1.00  1.00  1.00  1.00  1.00  1.00  1.00  0.92  0.84  0.77  0.77  0.77  0.78  0.85  0.93  1.00  1.00  1.00  1.00  1.00  1.00
1.00  1.00  1.00  1.00  1.00  1.00  1.00  1.00  1.00  1.00  0.92  0.84  0.77  0.77  0.77  0.78  0.85  0.93  1.00  1.00  1.00  1.00  1.00  1.00
1.00  1.00  1.00  1.00  1.00  1.00  1.00  1.00  1.00  1.00  0.92  0.84  0.77  0.77  0.77  0.78  0.85  0.93  1.00  1.00  1.00  1.00  1.00  1.00
1.00  1.00  1.00  1.00  1.00  1.00  1.00  1.00  1.00  1.00  0.92  0.84  0.77  0.77  0.77  0.78  0.85  0.93  1.00  1.00  1.00  1.00  1.00  1.00
1.00  1.00  1.00  1.00  1.00  1.00  1.00  1.00  1.00  1.00  0.92  0.84  0.77  0.77  0.77  0.78  0.85  0.93  1.00  1.00  1.00  1.00  1.00  1.00
$ ilon ilat of the cell. lon: 8.10767329, 35.56120552
43   1
$ sizes of the cell in km
    54.353       53.310       53.218       54.285       57.027       58.962       60.093       61.564       62.072       62.510       58.823       55.939       54.353       53.310       53.218       54.285       57.027       58.962       60.093       61.564       62.072       62.510       58.823       55.939
$ mean alpha: 0.682677687429
$ mean beta: 0.760173906631
$alpha by ik, ith
0.46  0.31  0.15  0.00  0.33  0.67  1.00  1.00  1.00  1.00  1.00  1.00  1.00  1.00  1.00  1.00  1.00  1.00  1.00  0.67  0.33  0.00  0.15  0.31
0.46  0.31  0.15  0.00  0.33  0.67  1.00  1.00  1.00  1.00  1.00  1.00  1.00  1.00  1.00  1.00  1.00  1.00  1.00  0.67  0.33  0.00  0.15  0.31
0.46  0.31  0.15  0.00  0.33  0.67  1.00  1.00  1.00  1.00  1.00  1.00  1.00  1.00  1.00  1.00  1.00  1.00  1.00  0.67  0.33  0.00  0.15  0.31
0.46  0.31  0.15  0.00  0.33  0.67  1.00  1.00  1.00  1.00  1.00  1.00  1.00  1.00  1.00  1.00  1.00  1.00  1.00  0.67  0.33  0.00  0.15  0.31
0.46  0.31  0.15  0.00  0.33  0.67  1.00  1.00  1.00  1.00  1.00  1.00  1.00  1.00  1.00  1.00  1.00  1.00  1.00  0.67  0.33  0.00  0.15  0.31
0.46  0.31  0.15  0.00  0.33  0.67  1.00  1.00  1.00  1.00  1.00  1.00  1.00  1.00  1.00  1.00  1.00  1.00  1.00  0.67  0.33  0.00  0.15  0.31
0.46  0.31  0.15  0.00  0.33  0.67  1.00  1.00  1.00  1.00  1.00  1.00  1.00  1.00  1.00  1.00  1.00  1.00  1.00  0.67  0.33  0.00  0.15  0.31
0.46  0.31  0.15  0.00  0.33  0.67  1.00  1.00  1.00  1.00  1.00  1.00  1.00  1.00  1.00  1.00  1.00  1.00  1.00  0.67  0.33  0.00  0.15  0.31
0.46  0.31  0.15  0.00  0.33  0.67  1.00  1.00  1.00  1.00  1.00  1.00  1.00  1.00  1.00  1.00  1.00  1.00  1.00  0.67  0.33  0.00  0.15  0.31
0.46  0.31  0.15  0.00  0.33  0.67  1.00  1.00  1.00  1.00  1.00  1.00  1.00  1.00  1.00  1.00  1.00  1.00  1.00  0.67  0.33  0.00  0.15  0.31
0.46  0.31  0.15  0.00  0.33  0.67  1.00  1.00  1.00  1.00  1.00  1.00  1.00  1.00  1.00  1.00  1.00  1.00  1.00  0.67  0.33  0.00  0.15  0.31
0.46  0.31  0.15  0.00  0.33  0.67  1.00  1.00  1.00  1.00  1.00  1.00  1.00  1.00  1.00  1.00  1.00  1.00  1.00  0.67  0.33  0.00  0.15  0.31
0.46  0.31  0.15  0.00  0.33  0.67  1.00  1.00  1.00  1.00  1.00  1.00  1.00  1.00  1.00  1.00  1.00  1.00  1.00  0.67  0.33  0.00  0.15  0.31
0.46  0.31  0.15  0.00  0.33  0.67  1.00  1.00  1.00  1.00  1.00  1.00  1.00  1.00  1.00  1.00  1.00  1.00  1.00  0.67  0.33  0.00  0.15  0.31
0.46  0.31  0.15  0.00  0.33  0.67  1.00  1.00  1.00  1.00  1.00  1.00  1.00  1.00  1.00  1.00  1.00  1.00  1.00  0.67  0.33  0.00  0.15  0.31
0.46  0.31  0.15  0.00  0.33  0.67  1.00  1.00  1.00  1.00  1.00  1.00  1.00  1.00  1.00  1.00  1.00  1.00  1.00  0.67  0.33  0.00  0.15  0.31
0.46  0.31  0.15  0.00  0.33  0.67  1.00  1.00  1.00  1.00  1.00  1.00  1.00  1.00  1.00  1.00  1.00  1.00  1.00  0.67  0.33  0.00  0.15  0.31
0.46  0.31  0.15  0.00  0.33  0.67  1.00  1.00  1.00  1.00  1.00  1.00  1.00  1.00  1.00  1.00  1.00  1.00  1.00  0.67  0.33  0.00  0.15  0.31
0.46  0.31  0.15  0.00  0.33  0.67  1.00  1.00  1.00  1.00  1.00  1.00  1.00  1.00  1.00  1.00  1.00  1.00  1.00  0.67  0.33  0.00  0.15  0.31
0.46  0.31  0.15  0.00  0.33  0.67  1.00  1.00  1.00  1.00  1.00  1.00  1.00  1.00  1.00  1.00  1.00  1.00  1.00  0.67  0.33  0.00  0.15  0.31
0.46  0.31  0.15  0.00  0.33  0.67  1.00  1.00  1.00  1.00  1.00  1.00  1.00  1.00  1.00  1.00  1.00  1.00  1.00  0.67  0.33  0.00  0.15  0.31
0.46  0.31  0.15  0.00  0.33  0.67  1.00  1.00  1.00  1.00  1.00  1.00  1.00  1.00  1.00  1.00  1.00  1.00  1.00  0.67  0.33  0.00  0.15  0.31
0.46  0.31  0.15  0.00  0.33  0.67  1.00  1.00  1.00  1.00  1.00  1.00  1.00  1.00  1.00  1.00  1.00  1.00  1.00  0.67  0.33  0.00  0.15  0.31
0.46  0.31  0.15  0.00  0.33  0.67  1.00  1.00  1.00  1.00  1.00  1.00  1.00  1.00  1.00  1.00  1.00  1.00  1.00  0.67  0.33  0.00  0.15  0.31
0.46  0.31  0.15  0.00  0.33  0.67  1.00  1.00  1.00  1.00  1.00  1.00  1.00  1.00  1.00  1.00  1.00  1.00  1.00  0.67  0.33  0.00  0.15  0.31
$beta by ik, ith
0.68  0.50  0.31  0.12  0.42  0.71  1.00  1.00  1.00  1.00  1.00  1.00  1.00  1.00  1.00  1.00  1.00  1.00  1.00  0.76  0.52  0.27  0.41  0.55
0.68  0.50  0.31  0.12  0.42  0.71  1.00  1.00  1.00  1.00  1.00  1.00  1.00  1.00  1.00  1.00  1.00  1.00  1.00  0.76  0.52  0.27  0.41  0.55
0.68  0.50  0.31  0.12  0.42  0.71  1.00  1.00  1.00  1.00  1.00  1.00  1.00  1.00  1.00  1.00  1.00  1.00  1.00  0.76  0.52  0.27  0.41  0.55
0.68  0.50  0.31  0.12  0.42  0.71  1.00  1.00  1.00  1.00  1.00  1.00  1.00  1.00  1.00  1.00  1.00  1.00  1.00  0.76  0.52  0.27  0.41  0.55
0.68  0.50  0.31  0.12  0.42  0.71  1.00  1.00  1.00  1.00  1.00  1.00  1.00  1.00  1.00  1.00  1.00  1.00  1.00  0.76  0.52  0.27  0.41  0.55
0.68  0.50  0.31  0.12  0.42  0.71  1.00  1.00  1.00  1.00  1.00  1.00  1.00  1.00  1.00  1.00  1.00  1.00  1.00  0.76  0.52  0.27  0.41  0.55
0.68  0.50  0.31  0.12  0.42  0.71  1.00  1.00  1.00  1.00  1.00  1.00  1.00  1.00  1.00  1.00  1.00  1.00  1.00  0.76  0.52  0.27  0.41  0.55
0.68  0.50  0.31  0.12  0.42  0.71  1.00  1.00  1.00  1.00  1.00  1.00  1.00  1.00  1.00  1.00  1.00  1.00  1.00  0.76  0.52  0.27  0.41  0.55
0.68  0.50  0.31  0.12  0.42  0.71  1.00  1.00  1.00  1.00  1.00  1.00  1.00  1.00  1.00  1.00  1.00  1.00  1.00  0.76  0.52  0.27  0.41  0.55
0.68  0.50  0.31  0.12  0.42  0.71  1.00  1.00  1.00  1.00  1.00  1.00  1.00  1.00  1.00  1.00  1.00  1.00  1.00  0.76  0.52  0.27  0.41  0.55
0.68  0.50  0.31  0.12  0.42  0.71  1.00  1.00  1.00  1.00  1.00  1.00  1.00  1.00  1.00  1.00  1.00  1.00  1.00  0.76  0.52  0.27  0.41  0.55
0.68  0.50  0.31  0.12  0.42  0.71  1.00  1.00  1.00  1.00  1.00  1.00  1.00  1.00  1.00  1.00  1.00  1.00  1.00  0.76  0.52  0.27  0.41  0.55
0.68  0.50  0.31  0.12  0.42  0.71  1.00  1.00  1.00  1.00  1.00  1.00  1.00  1.00  1.00  1.00  1.00  1.00  1.00  0.76  0.52  0.27  0.41  0.55
0.68  0.50  0.31  0.12  0.42  0.71  1.00  1.00  1.00  1.00  1.00  1.00  1.00  1.00  1.00  1.00  1.00  1.00  1.00  0.76  0.52  0.27  0.41  0.55
0.68  0.50  0.31  0.12  0.42  0.71  1.00  1.00  1.00  1.00  1.00  1.00  1.00  1.00  1.00  1.00  1.00  1.00  1.00  0.76  0.52  0.27  0.41  0.55
0.68  0.50  0.31  0.12  0.42  0.71  1.00  1.00  1.00  1.00  1.00  1.00  1.00  1.00  1.00  1.00  1.00  1.00  1.00  0.76  0.52  0.27  0.41  0.55
0.68  0.50  0.31  0.12  0.42  0.71  1.00  1.00  1.00  1.00  1.00  1.00  1.00  1.00  1.00  1.00  1.00  1.00  1.00  0.76  0.52  0.27  0.41  0.55
0.68  0.50  0.31  0.12  0.42  0.71  1.00  1.00  1.00  1.00  1.00  1.00  1.00  1.00  1.00  1.00  1.00  1.00  1.00  0.76  0.52  0.27  0.41  0.55
0.68  0.50  0.31  0.12  0.42  0.71  1.00  1.00  1.00  1.00  1.00  1.00  1.00  1.00  1.00  1.00  1.00  1.00  1.00  0.76  0.52  0.27  0.41  0.55
0.68  0.50  0.31  0.12  0.42  0.71  1.00  1.00  1.00  1.00  1.00  1.00  1.00  1.00  1.00  1.00  1.00  1.00  1.00  0.76  0.52  0.27  0.41  0.55
0.68  0.50  0.31  0.12  0.42  0.71  1.00  1.00  1.00  1.00  1.00  1.00  1.00  1.00  1.00  1.00  1.00  1.00  1.00  0.76  0.52  0.27  0.41  0.55
0.68  0.50  0.31  0.12  0.42  0.71  1.00  1.00  1.00  1.00  1.00  1.00  1.00  1.00  1.00  1.00  1.00  1.00  1.00  0.76  0.52  0.27  0.41  0.55
0.68  0.50  0.31  0.12  0.42  0.71  1.00  1.00  1.00  1.00  1.00  1.00  1.00  1.00  1.00  1.00  1.00  1.00  1.00  0.76  0.52  0.27  0.41  0.55
0.68  0.50  0.31  0.12  0.42  0.71  1.00  1.00  1.00  1.00  1.00  1.00  1.00  1.00  1.00  1.00  1.00  1.00  1.00  0.76  0.52  0.27  0.41  0.55
0.68  0.50  0.31  0.12  0.42  0.71  1.00  1.00  1.00  1.00  1.00  1.00  1.00  1.00  1.00  1.00  1.00  1.00  1.00  0.76  0.52  0.27  0.41  0.55
$ ilon ilat of the cell. lon: 8.97647594, 32.38683573
44   1
$ sizes of the cell in km
    80.222       83.033       83.525       84.226       79.751       76.213       72.527       69.506       71.231       72.566       75.113       78.131       80.222       83.033       83.525       84.226       79.751       76.213       72.527       69.506       71.231       72.566       75.113       78.131
$ mean alpha: 0.944321010848
$ mean beta: 0.945657736558
$alpha by ik, ith
0.55  0.70  0.85  1.00  1.00  1.00  1.00  1.00  1.00  1.00  1.00  1.00  1.00  1.00  1.00  1.00  1.00  1.00  1.00  1.00  1.00  1.00  0.85  0.70
0.55  0.70  0.85  1.00  1.00  1.00  1.00  1.00  1.00  1.00  1.00  1.00  1.00  1.00  1.00  1.00  1.00  1.00  1.00  1.00  1.00  1.00  0.85  0.70
0.55  0.70  0.85  1.00  1.00  1.00  1.00  1.00  1.00  1.00  1.00  1.00  1.00  1.00  1.00  1.00  1.00  1.00  1.00  1.00  1.00  1.00  0.85  0.70
0.55  0.70  0.85  1.00  1.00  1.00  1.00  1.00  1.00  1.00  1.00  1.00  1.00  1.00  1.00  1.00  1.00  1.00  1.00  1.00  1.00  1.00  0.85  0.70
0.55  0.70  0.85  1.00  1.00  1.00  1.00  1.00  1.00  1.00  1.00  1.00  1.00  1.00  1.00  1.00  1.00  1.00  1.00  1.00  1.00  1.00  0.85  0.70
0.55  0.70  0.85  1.00  1.00  1.00  1.00  1.00  1.00  1.00  1.00  1.00  1.00  1.00  1.00  1.00  1.00  1.00  1.00  1.00  1.00  1.00  0.85  0.70
0.55  0.70  0.85  1.00  1.00  1.00  1.00  1.00  1.00  1.00  1.00  1.00  1.00  1.00  1.00  1.00  1.00  1.00  1.00  1.00  1.00  1.00  0.85  0.70
0.55  0.70  0.85  1.00  1.00  1.00  1.00  1.00  1.00  1.00  1.00  1.00  1.00  1.00  1.00  1.00  1.00  1.00  1.00  1.00  1.00  1.00  0.85  0.70
0.55  0.70  0.85  1.00  1.00  1.00  1.00  1.00  1.00  1.00  1.00  1.00  1.00  1.00  1.00  1.00  1.00  1.00  1.00  1.00  1.00  1.00  0.85  0.70
0.55  0.70  0.85  1.00  1.00  1.00  1.00  1.00  1.00  1.00  1.00  1.00  1.00  1.00  1.00  1.00  1.00  1.00  1.00  1.00  1.00  1.00  0.85  0.70
0.55  0.70  0.85  1.00  1.00  1.00  1.00  1.00  1.00  1.00  1.00  1.00  1.00  1.00  1.00  1.00  1.00  1.00  1.00  1.00  1.00  1.00  0.85  0.70
0.55  0.70  0.85  1.00  1.00  1.00  1.00  1.00  1.00  1.00  1.00  1.00  1.00  1.00  1.00  1.00  1.00  1.00  1.00  1.00  1.00  1.00  0.85  0.70
0.55  0.70  0.85  1.00  1.00  1.00  1.00  1.00  1.00  1.00  1.00  1.00  1.00  1.00  1.00  1.00  1.00  1.00  1.00  1.00  1.00  1.00  0.85  0.70
0.55  0.70  0.85  1.00  1.00  1.00  1.00  1.00  1.00  1.00  1.00  1.00  1.00  1.00  1.00  1.00  1.00  1.00  1.00  1.00  1.00  1.00  0.85  0.70
0.55  0.70  0.85  1.00  1.00  1.00  1.00  1.00  1.00  1.00  1.00  1.00  1.00  1.00  1.00  1.00  1.00  1.00  1.00  1.00  1.00  1.00  0.85  0.70
0.55  0.70  0.85  1.00  1.00  1.00  1.00  1.00  1.00  1.00  1.00  1.00  1.00  1.00  1.00  1.00  1.00  1.00  1.00  1.00  1.00  1.00  0.85  0.70
0.55  0.70  0.85  1.00  1.00  1.00  1.00  1.00  1.00  1.00  1.00  1.00  1.00  1.00  1.00  1.00  1.00  1.00  1.00  1.00  1.00  1.00  0.85  0.70
0.55  0.70  0.85  1.00  1.00  1.00  1.00  1.00  1.00  1.00  1.00  1.00  1.00  1.00  1.00  1.00  1.00  1.00  1.00  1.00  1.00  1.00  0.85  0.70
0.55  0.70  0.85  1.00  1.00  1.00  1.00  1.00  1.00  1.00  1.00  1.00  1.00  1.00  1.00  1.00  1.00  1.00  1.00  1.00  1.00  1.00  0.85  0.70
0.55  0.70  0.85  1.00  1.00  1.00  1.00  1.00  1.00  1.00  1.00  1.00  1.00  1.00  1.00  1.00  1.00  1.00  1.00  1.00  1.00  1.00  0.85  0.70
0.55  0.70  0.85  1.00  1.00  1.00  1.00  1.00  1.00  1.00  1.00  1.00  1.00  1.00  1.00  1.00  1.00  1.00  1.00  1.00  1.00  1.00  0.85  0.70
0.55  0.70  0.85  1.00  1.00  1.00  1.00  1.00  1.00  1.00  1.00  1.00  1.00  1.00  1.00  1.00  1.00  1.00  1.00  1.00  1.00  1.00  0.85  0.70
0.55  0.70  0.85  1.00  1.00  1.00  1.00  1.00  1.00  1.00  1.00  1.00  1.00  1.00  1.00  1.00  1.00  1.00  1.00  1.00  1.00  1.00  0.85  0.70
0.55  0.70  0.85  1.00  1.00  1.00  1.00  1.00  1.00  1.00  1.00  1.00  1.00  1.00  1.00  1.00  1.00  1.00  1.00  1.00  1.00  1.00  0.85  0.70
0.55  0.70  0.85  1.00  1.00  1.00  1.00  1.00  1.00  1.00  1.00  1.00  1.00  1.00  1.00  1.00  1.00  1.00  1.00  1.00  1.00  1.00  0.85  0.70
$beta by ik, ith
0.57  0.71  0.86  1.00  1.00  1.00  1.00  1.00  1.00  1.00  1.00  1.00  1.00  1.00  1.00  1.00  1.00  1.00  1.00  1.00  1.00  1.00  0.86  0.71
0.57  0.71  0.86  1.00  1.00  1.00  1.00  1.00  1.00  1.00  1.00  1.00  1.00  1.00  1.00  1.00  1.00  1.00  1.00  1.00  1.00  1.00  0.86  0.71
0.57  0.71  0.86  1.00  1.00  1.00  1.00  1.00  1.00  1.00  1.00  1.00  1.00  1.00  1.00  1.00  1.00  1.00  1.00  1.00  1.00  1.00  0.86  0.71
0.57  0.71  0.86  1.00  1.00  1.00  1.00  1.00  1.00  1.00  1.00  1.00  1.00  1.00  1.00  1.00  1.00  1.00  1.00  1.00  1.00  1.00  0.86  0.71
0.57  0.71  0.86  1.00  1.00  1.00  1.00  1.00  1.00  1.00  1.00  1.00  1.00  1.00  1.00  1.00  1.00  1.00  1.00  1.00  1.00  1.00  0.86  0.71
0.57  0.71  0.86  1.00  1.00  1.00  1.00  1.00  1.00  1.00  1.00  1.00  1.00  1.00  1.00  1.00  1.00  1.00  1.00  1.00  1.00  1.00  0.86  0.71
0.57  0.71  0.86  1.00  1.00  1.00  1.00  1.00  1.00  1.00  1.00  1.00  1.00  1.00  1.00  1.00  1.00  1.00  1.00  1.00  1.00  1.00  0.86  0.71
0.57  0.71  0.86  1.00  1.00  1.00  1.00  1.00  1.00  1.00  1.00  1.00  1.00  1.00  1.00  1.00  1.00  1.00  1.00  1.00  1.00  1.00  0.86  0.71
0.57  0.71  0.86  1.00  1.00  1.00  1.00  1.00  1.00  1.00  1.00  1.00  1.00  1.00  1.00  1.00  1.00  1.00  1.00  1.00  1.00  1.00  0.86  0.71
0.57  0.71  0.86  1.00  1.00  1.00  1.00  1.00  1.00  1.00  1.00  1.00  1.00  1.00  1.00  1.00  1.00  1.00  1.00  1.00  1.00  1.00  0.86  0.71
0.57  0.71  0.86  1.00  1.00  1.00  1.00  1.00  1.00  1.00  1.00  1.00  1.00  1.00  1.00  1.00  1.00  1.00  1.00  1.00  1.00  1.00  0.86  0.71
0.57  0.71  0.86  1.00  1.00  1.00  1.00  1.00  1.00  1.00  1.00  1.00  1.00  1.00  1.00  1.00  1.00  1.00  1.00  1.00  1.00  1.00  0.86  0.71
0.57  0.71  0.86  1.00  1.00  1.00  1.00  1.00  1.00  1.00  1.00  1.00  1.00  1.00  1.00  1.00  1.00  1.00  1.00  1.00  1.00  1.00  0.86  0.71
0.57  0.71  0.86  1.00  1.00  1.00  1.00  1.00  1.00  1.00  1.00  1.00  1.00  1.00  1.00  1.00  1.00  1.00  1.00  1.00  1.00  1.00  0.86  0.71
0.57  0.71  0.86  1.00  1.00  1.00  1.00  1.00  1.00  1.00  1.00  1.00  1.00  1.00  1.00  1.00  1.00  1.00  1.00  1.00  1.00  1.00  0.86  0.71
0.57  0.71  0.86  1.00  1.00  1.00  1.00  1.00  1.00  1.00  1.00  1.00  1.00  1.00  1.00  1.00  1.00  1.00  1.00  1.00  1.00  1.00  0.86  0.71
0.57  0.71  0.86  1.00  1.00  1.00  1.00  1.00  1.00  1.00  1.00  1.00  1.00  1.00  1.00  1.00  1.00  1.00  1.00  1.00  1.00  1.00  0.86  0.71
0.57  0.71  0.86  1.00  1.00  1.00  1.00  1.00  1.00  1.00  1.00  1.00  1.00  1.00  1.00  1.00  1.00  1.00  1.00  1.00  1.00  1.00  0.86  0.71
0.57  0.71  0.86  1.00  1.00  1.00  1.00  1.00  1.00  1.00  1.00  1.00  1.00  1.00  1.00  1.00  1.00  1.00  1.00  1.00  1.00  1.00  0.86  0.71
0.57  0.71  0.86  1.00  1.00  1.00  1.00  1.00  1.00  1.00  1.00  1.00  1.00  1.00  1.00  1.00  1.00  1.00  1.00  1.00  1.00  1.00  0.86  0.71
0.57  0.71  0.86  1.00  1.00  1.00  1.00  1.00  1.00  1.00  1.00  1.00  1.00  1.00  1.00  1.00  1.00  1.00  1.00  1.00  1.00  1.00  0.86  0.71
0.57  0.71  0.86  1.00  1.00  1.00  1.00  1.00  1.00  1.00  1.00  1.00  1.00  1.00  1.00  1.00  1.00  1.00  1.00  1.00  1.00  1.00  0.86  0.71
0.57  0.71  0.86  1.00  1.00  1.00  1.00  1.00  1.00  1.00  1.00  1.00  1.00  1.00  1.00  1.00  1.00  1.00  1.00  1.00  1.00  1.00  0.86  0.71
0.57  0.71  0.86  1.00  1.00  1.00  1.00  1.00  1.00  1.00  1.00  1.00  1.00  1.00  1.00  1.00  1.00  1.00  1.00  1.00  1.00  1.00  0.86  0.71
0.57  0.71  0.86  1.00  1.00  1.00  1.00  1.00  1.00  1.00  1.00  1.00  1.00  1.00  1.00  1.00  1.00  1.00  1.00  1.00  1.00  1.00  0.86  0.71
$ ilon ilat of the cell. lon: 7.34368734, 33.967713
45   1
$ sizes of the cell in km
    72.581       68.717       65.079       63.256       66.200       68.282       69.056       71.426       72.973       74.539       74.870       72.910       72.581       68.717       65.079       63.256       66.200       68.282       69.056       71.426       72.973       74.539       74.870       72.910
$ mean alpha: 0.788738268906
$ mean beta: 0.803532837882
$alpha by ik, ith
1.00  1.00  1.00  1.00  1.00  1.00  1.00  0.87  0.73  0.60  0.54  0.48  0.42  0.38  0.33  0.29  0.53  0.76  1.00  1.00  1.00  1.00  1.00  1.00
1.00  1.00  1.00  1.00  1.00  1.00  1.00  0.87  0.73  0.60  0.54  0.48  0.42  0.38  0.33  0.29  0.53  0.76  1.00  1.00  1.00  1.00  1.00  1.00
1.00  1.00  1.00  1.00  1.00  1.00  1.00  0.87  0.73  0.60  0.54  0.48  0.42  0.38  0.33  0.29  0.53  0.76  1.00  1.00  1.00  1.00  1.00  1.00
1.00  1.00  1.00  1.00  1.00  1.00  1.00  0.87  0.73  0.60  0.54  0.48  0.42  0.38  0.33  0.29  0.53  0.76  1.00  1.00  1.00  1.00  1.00  1.00
1.00  1.00  1.00  1.00  1.00  1.00  1.00  0.87  0.73  0.60  0.54  0.48  0.42  0.38  0.33  0.29  0.53  0.76  1.00  1.00  1.00  1.00  1.00  1.00
1.00  1.00  1.00  1.00  1.00  1.00  1.00  0.87  0.73  0.60  0.54  0.48  0.42  0.38  0.33  0.29  0.53  0.76  1.00  1.00  1.00  1.00  1.00  1.00
1.00  1.00  1.00  1.00  1.00  1.00  1.00  0.87  0.73  0.60  0.54  0.48  0.42  0.38  0.33  0.29  0.53  0.76  1.00  1.00  1.00  1.00  1.00  1.00
1.00  1.00  1.00  1.00  1.00  1.00  1.00  0.87  0.73  0.60  0.54  0.48  0.42  0.38  0.33  0.29  0.53  0.76  1.00  1.00  1.00  1.00  1.00  1.00
1.00  1.00  1.00  1.00  1.00  1.00  1.00  0.87  0.73  0.60  0.54  0.48  0.42  0.38  0.33  0.29  0.53  0.76  1.00  1.00  1.00  1.00  1.00  1.00
1.00  1.00  1.00  1.00  1.00  1.00  1.00  0.87  0.73  0.60  0.54  0.48  0.42  0.38  0.33  0.29  0.53  0.76  1.00  1.00  1.00  1.00  1.00  1.00
1.00  1.00  1.00  1.00  1.00  1.00  1.00  0.87  0.73  0.60  0.54  0.48  0.42  0.38  0.33  0.29  0.53  0.76  1.00  1.00  1.00  1.00  1.00  1.00
1.00  1.00  1.00  1.00  1.00  1.00  1.00  0.87  0.73  0.60  0.54  0.48  0.42  0.38  0.33  0.29  0.53  0.76  1.00  1.00  1.00  1.00  1.00  1.00
1.00  1.00  1.00  1.00  1.00  1.00  1.00  0.87  0.73  0.60  0.54  0.48  0.42  0.38  0.33  0.29  0.53  0.76  1.00  1.00  1.00  1.00  1.00  1.00
1.00  1.00  1.00  1.00  1.00  1.00  1.00  0.87  0.73  0.60  0.54  0.48  0.42  0.38  0.33  0.29  0.53  0.76  1.00  1.00  1.00  1.00  1.00  1.00
1.00  1.00  1.00  1.00  1.00  1.00  1.00  0.87  0.73  0.60  0.54  0.48  0.42  0.38  0.33  0.29  0.53  0.76  1.00  1.00  1.00  1.00  1.00  1.00
1.00  1.00  1.00  1.00  1.00  1.00  1.00  0.87  0.73  0.60  0.54  0.48  0.42  0.38  0.33  0.29  0.53  0.76  1.00  1.00  1.00  1.00  1.00  1.00
1.00  1.00  1.00  1.00  1.00  1.00  1.00  0.87  0.73  0.60  0.54  0.48  0.42  0.38  0.33  0.29  0.53  0.76  1.00  1.00  1.00  1.00  1.00  1.00
1.00  1.00  1.00  1.00  1.00  1.00  1.00  0.87  0.73  0.60  0.54  0.48  0.42  0.38  0.33  0.29  0.53  0.76  1.00  1.00  1.00  1.00  1.00  1.00
1.00  1.00  1.00  1.00  1.00  1.00  1.00  0.87  0.73  0.60  0.54  0.48  0.42  0.38  0.33  0.29  0.53  0.76  1.00  1.00  1.00  1.00  1.00  1.00
1.00  1.00  1.00  1.00  1.00  1.00  1.00  0.87  0.73  0.60  0.54  0.48  0.42  0.38  0.33  0.29  0.53  0.76  1.00  1.00  1.00  1.00  1.00  1.00
1.00  1.00  1.00  1.00  1.00  1.00  1.00  0.87  0.73  0.60  0.54  0.48  0.42  0.38  0.33  0.29  0.53  0.76  1.00  1.00  1.00  1.00  1.00  1.00
1.00  1.00  1.00  1.00  1.00  1.00  1.00  0.87  0.73  0.60  0.54  0.48  0.42  0.38  0.33  0.29  0.53  0.76  1.00  1.00  1.00  1.00  1.00  1.00
1.00  1.00  1.00  1.00  1.00  1.00  1.00  0.87  0.73  0.60  0.54  0.48  0.42  0.38  0.33  0.29  0.53  0.76  1.00  1.00  1.00  1.00  1.00  1.00
1.00  1.00  1.00  1.00  1.00  1.00  1.00  0.87  0.73  0.60  0.54  0.48  0.42  0.38  0.33  0.29  0.53  0.76  1.00  1.00  1.00  1.00  1.00  1.00
1.00  1.00  1.00  1.00  1.00  1.00  1.00  0.87  0.73  0.60  0.54  0.48  0.42  0.38  0.33  0.29  0.53  0.76  1.00  1.00  1.00  1.00  1.00  1.00
$beta by ik, ith
1.00  1.00  1.00  1.00  1.00  1.00  1.00  0.87  0.74  0.60  0.56  0.52  0.48  0.43  0.39  0.35  0.57  0.78  1.00  1.00  1.00  1.00  1.00  1.00
1.00  1.00  1.00  1.00  1.00  1.00  1.00  0.87  0.74  0.60  0.56  0.52  0.48  0.43  0.39  0.35  0.57  0.78  1.00  1.00  1.00  1.00  1.00  1.00
1.00  1.00  1.00  1.00  1.00  1.00  1.00  0.87  0.74  0.60  0.56  0.52  0.48  0.43  0.39  0.35  0.57  0.78  1.00  1.00  1.00  1.00  1.00  1.00
1.00  1.00  1.00  1.00  1.00  1.00  1.00  0.87  0.74  0.60  0.56  0.52  0.48  0.43  0.39  0.35  0.57  0.78  1.00  1.00  1.00  1.00  1.00  1.00
1.00  1.00  1.00  1.00  1.00  1.00  1.00  0.87  0.74  0.60  0.56  0.52  0.48  0.43  0.39  0.35  0.57  0.78  1.00  1.00  1.00  1.00  1.00  1.00
1.00  1.00  1.00  1.00  1.00  1.00  1.00  0.87  0.74  0.60  0.56  0.52  0.48  0.43  0.39  0.35  0.57  0.78  1.00  1.00  1.00  1.00  1.00  1.00
1.00  1.00  1.00  1.00  1.00  1.00  1.00  0.87  0.74  0.60  0.56  0.52  0.48  0.43  0.39  0.35  0.57  0.78  1.00  1.00  1.00  1.00  1.00  1.00
1.00  1.00  1.00  1.00  1.00  1.00  1.00  0.87  0.74  0.60  0.56  0.52  0.48  0.43  0.39  0.35  0.57  0.78  1.00  1.00  1.00  1.00  1.00  1.00
1.00  1.00  1.00  1.00  1.00  1.00  1.00  0.87  0.74  0.60  0.56  0.52  0.48  0.43  0.39  0.35  0.57  0.78  1.00  1.00  1.00  1.00  1.00  1.00
1.00  1.00  1.00  1.00  1.00  1.00  1.00  0.87  0.74  0.60  0.56  0.52  0.48  0.43  0.39  0.35  0.57  0.78  1.00  1.00  1.00  1.00  1.00  1.00
1.00  1.00  1.00  1.00  1.00  1.00  1.00  0.87  0.74  0.60  0.56  0.52  0.48  0.43  0.39  0.35  0.57  0.78  1.00  1.00  1.00  1.00  1.00  1.00
1.00  1.00  1.00  1.00  1.00  1.00  1.00  0.87  0.74  0.60  0.56  0.52  0.48  0.43  0.39  0.35  0.57  0.78  1.00  1.00  1.00  1.00  1.00  1.00
1.00  1.00  1.00  1.00  1.00  1.00  1.00  0.87  0.74  0.60  0.56  0.52  0.48  0.43  0.39  0.35  0.57  0.78  1.00  1.00  1.00  1.00  1.00  1.00
1.00  1.00  1.00  1.00  1.00  1.00  1.00  0.87  0.74  0.60  0.56  0.52  0.48  0.43  0.39  0.35  0.57  0.78  1.00  1.00  1.00  1.00  1.00  1.00
1.00  1.00  1.00  1.00  1.00  1.00  1.00  0.87  0.74  0.60  0.56  0.52  0.48  0.43  0.39  0.35  0.57  0.78  1.00  1.00  1.00  1.00  1.00  1.00
1.00  1.00  1.00  1.00  1.00  1.00  1.00  0.87  0.74  0.60  0.56  0.52  0.48  0.43  0.39  0.35  0.57  0.78  1.00  1.00  1.00  1.00  1.00  1.00
1.00  1.00  1.00  1.00  1.00  1.00  1.00  0.87  0.74  0.60  0.56  0.52  0.48  0.43  0.39  0.35  0.57  0.78  1.00  1.00  1.00  1.00  1.00  1.00
1.00  1.00  1.00  1.00  1.00  1.00  1.00  0.87  0.74  0.60  0.56  0.52  0.48  0.43  0.39  0.35  0.57  0.78  1.00  1.00  1.00  1.00  1.00  1.00
1.00  1.00  1.00  1.00  1.00  1.00  1.00  0.87  0.74  0.60  0.56  0.52  0.48  0.43  0.39  0.35  0.57  0.78  1.00  1.00  1.00  1.00  1.00  1.00
1.00  1.00  1.00  1.00  1.00  1.00  1.00  0.87  0.74  0.60  0.56  0.52  0.48  0.43  0.39  0.35  0.57  0.78  1.00  1.00  1.00  1.00  1.00  1.00
1.00  1.00  1.00  1.00  1.00  1.00  1.00  0.87  0.74  0.60  0.56  0.52  0.48  0.43  0.39  0.35  0.57  0.78  1.00  1.00  1.00  1.00  1.00  1.00
1.00  1.00  1.00  1.00  1.00  1.00  1.00  0.87  0.74  0.60  0.56  0.52  0.48  0.43  0.39  0.35  0.57  0.78  1.00  1.00  1.00  1.00  1.00  1.00
1.00  1.00  1.00  1.00  1.00  1.00  1.00  0.87  0.74  0.60  0.56  0.52  0.48  0.43  0.39  0.35  0.57  0.78  1.00  1.00  1.00  1.00  1.00  1.00
1.00  1.00  1.00  1.00  1.00  1.00  1.00  0.87  0.74  0.60  0.56  0.52  0.48  0.43  0.39  0.35  0.57  0.78  1.00  1.00  1.00  1.00  1.00  1.00
1.00  1.00  1.00  1.00  1.00  1.00  1.00  0.87  0.74  0.60  0.56  0.52  0.48  0.43  0.39  0.35  0.57  0.78  1.00  1.00  1.00  1.00  1.00  1.00
$ ilon ilat of the cell. lon: 7.99651012, 32.15393415
46   1
$ sizes of the cell in km
    78.959       77.311       74.565       72.160       70.877       69.176       70.622       71.696       72.034       73.883       77.916       81.152       78.959       77.311       74.565       72.160       70.877       69.176       70.622       71.696       72.034       73.883       77.916       81.152
$ mean alpha: 0.765079679527
$ mean beta: 0.852409562781
$alpha by ik, ith
0.75  0.64  0.53  0.42  0.56  0.71  0.86  0.88  0.89  0.91  0.94  0.97  1.00  0.98  0.96  0.94  0.91  0.89  0.86  0.70  0.54  0.38  0.51  0.63
0.75  0.64  0.53  0.42  0.56  0.71  0.86  0.88  0.89  0.91  0.94  0.97  1.00  0.98  0.96  0.94  0.91  0.89  0.86  0.70  0.54  0.38  0.51  0.63
0.75  0.64  0.53  0.42  0.56  0.71  0.86  0.88  0.89  0.91  0.94  0.97  1.00  0.98  0.96  0.94  0.91  0.89  0.86  0.70  0.54  0.38  0.51  0.63
0.75  0.64  0.53  0.42  0.56  0.71  0.86  0.88  0.89  0.91  0.94  0.97  1.00  0.98  0.96  0.94  0.91  0.89  0.86  0.70  0.54  0.38  0.51  0.63
0.75  0.64  0.53  0.42  0.56  0.71  0.86  0.88  0.89  0.91  0.94  0.97  1.00  0.98  0.96  0.94  0.91  0.89  0.86  0.70  0.54  0.38  0.51  0.63
0.75  0.64  0.53  0.42  0.56  0.71  0.86  0.88  0.89  0.91  0.94  0.97  1.00  0.98  0.96  0.94  0.91  0.89  0.86  0.70  0.54  0.38  0.51  0.63
0.75  0.64  0.53  0.42  0.56  0.71  0.86  0.88  0.89  0.91  0.94  0.97  1.00  0.98  0.96  0.94  0.91  0.89  0.86  0.70  0.54  0.38  0.51  0.63
0.75  0.64  0.53  0.42  0.56  0.71  0.86  0.88  0.89  0.91  0.94  0.97  1.00  0.98  0.96  0.94  0.91  0.89  0.86  0.70  0.54  0.38  0.51  0.63
0.75  0.64  0.53  0.42  0.56  0.71  0.86  0.88  0.89  0.91  0.94  0.97  1.00  0.98  0.96  0.94  0.91  0.89  0.86  0.70  0.54  0.38  0.51  0.63
0.75  0.64  0.53  0.42  0.56  0.71  0.86  0.88  0.89  0.91  0.94  0.97  1.00  0.98  0.96  0.94  0.91  0.89  0.86  0.70  0.54  0.38  0.51  0.63
0.75  0.64  0.53  0.42  0.56  0.71  0.86  0.88  0.89  0.91  0.94  0.97  1.00  0.98  0.96  0.94  0.91  0.89  0.86  0.70  0.54  0.38  0.51  0.63
0.75  0.64  0.53  0.42  0.56  0.71  0.86  0.88  0.89  0.91  0.94  0.97  1.00  0.98  0.96  0.94  0.91  0.89  0.86  0.70  0.54  0.38  0.51  0.63
0.75  0.64  0.53  0.42  0.56  0.71  0.86  0.88  0.89  0.91  0.94  0.97  1.00  0.98  0.96  0.94  0.91  0.89  0.86  0.70  0.54  0.38  0.51  0.63
0.75  0.64  0.53  0.42  0.56  0.71  0.86  0.88  0.89  0.91  0.94  0.97  1.00  0.98  0.96  0.94  0.91  0.89  0.86  0.70  0.54  0.38  0.51  0.63
0.75  0.64  0.53  0.42  0.56  0.71  0.86  0.88  0.89  0.91  0.94  0.97  1.00  0.98  0.96  0.94  0.91  0.89  0.86  0.70  0.54  0.38  0.51  0.63
0.75  0.64  0.53  0.42  0.56  0.71  0.86  0.88  0.89  0.91  0.94  0.97  1.00  0.98  0.96  0.94  0.91  0.89  0.86  0.70  0.54  0.38  0.51  0.63
0.75  0.64  0.53  0.42  0.56  0.71  0.86  0.88  0.89  0.91  0.94  0.97  1.00  0.98  0.96  0.94  0.91  0.89  0.86  0.70  0.54  0.38  0.51  0.63
0.75  0.64  0.53  0.42  0.56  0.71  0.86  0.88  0.89  0.91  0.94  0.97  1.00  0.98  0.96  0.94  0.91  0.89  0.86  0.70  0.54  0.38  0.51  0.63
0.75  0.64  0.53  0.42  0.56  0.71  0.86  0.88  0.89  0.91  0.94  0.97  1.00  0.98  0.96  0.94  0.91  0.89  0.86  0.70  0.54  0.38  0.51  0.63
0.75  0.64  0.53  0.42  0.56  0.71  0.86  0.88  0.89  0.91  0.94  0.97  1.00  0.98  0.96  0.94  0.91  0.89  0.86  0.70  0.54  0.38  0.51  0.63
0.75  0.64  0.53  0.42  0.56  0.71  0.86  0.88  0.89  0.91  0.94  0.97  1.00  0.98  0.96  0.94  0.91  0.89  0.86  0.70  0.54  0.38  0.51  0.63
0.75  0.64  0.53  0.42  0.56  0.71  0.86  0.88  0.89  0.91  0.94  0.97  1.00  0.98  0.96  0.94  0.91  0.89  0.86  0.70  0.54  0.38  0.51  0.63
0.75  0.64  0.53  0.42  0.56  0.71  0.86  0.88  0.89  0.91  0.94  0.97  1.00  0.98  0.96  0.94  0.91  0.89  0.86  0.70  0.54  0.38  0.51  0.63
0.75  0.64  0.53  0.42  0.56  0.71  0.86  0.88  0.89  0.91  0.94  0.97  1.00  0.98  0.96  0.94  0.91  0.89  0.86  0.70  0.54  0.38  0.51  0.63
0.75  0.64  0.53  0.42  0.56  0.71  0.86  0.88  0.89  0.91  0.94  0.97  1.00  0.98  0.96  0.94  0.91  0.89  0.86  0.70  0.54  0.38  0.51  0.63
$beta by ik, ith
0.91  0.78  0.66  0.53  0.64  0.75  0.86  0.90  0.94  0.98  0.99  0.99  1.00  0.99  0.99  0.98  0.95  0.92  0.88  0.81  0.74  0.67  0.75  0.83
0.91  0.78  0.66  0.53  0.64  0.75  0.86  0.90  0.94  0.98  0.99  0.99  1.00  0.99  0.99  0.98  0.95  0.92  0.88  0.81  0.74  0.67  0.75  0.83
0.91  0.78  0.66  0.53  0.64  0.75  0.86  0.90  0.94  0.98  0.99  0.99  1.00  0.99  0.99  0.98  0.95  0.92  0.88  0.81  0.74  0.67  0.75  0.83
0.91  0.78  0.66  0.53  0.64  0.75  0.86  0.90  0.94  0.98  0.99  0.99  1.00  0.99  0.99  0.98  0.95  0.92  0.88  0.81  0.74  0.67  0.75  0.83
0.91  0.78  0.66  0.53  0.64  0.75  0.86  0.90  0.94  0.98  0.99  0.99  1.00  0.99  0.99  0.98  0.95  0.92  0.88  0.81  0.74  0.67  0.75  0.83
0.91  0.78  0.66  0.53  0.64  0.75  0.86  0.90  0.94  0.98  0.99  0.99  1.00  0.99  0.99  0.98  0.95  0.92  0.88  0.81  0.74  0.67  0.75  0.83
0.91  0.78  0.66  0.53  0.64  0.75  0.86  0.90  0.94  0.98  0.99  0.99  1.00  0.99  0.99  0.98  0.95  0.92  0.88  0.81  0.74  0.67  0.75  0.83
0.91  0.78  0.66  0.53  0.64  0.75  0.86  0.90  0.94  0.98  0.99  0.99  1.00  0.99  0.99  0.98  0.95  0.92  0.88  0.81  0.74  0.67  0.75  0.83
0.91  0.78  0.66  0.53  0.64  0.75  0.86  0.90  0.94  0.98  0.99  0.99  1.00  0.99  0.99  0.98  0.95  0.92  0.88  0.81  0.74  0.67  0.75  0.83
0.91  0.78  0.66  0.53  0.64  0.75  0.86  0.90  0.94  0.98  0.99  0.99  1.00  0.99  0.99  0.98  0.95  0.92  0.88  0.81  0.74  0.67  0.75  0.83
0.91  0.78  0.66  0.53  0.64  0.75  0.86  0.90  0.94  0.98  0.99  0.99  1.00  0.99  0.99  0.98  0.95  0.92  0.88  0.81  0.74  0.67  0.75  0.83
0.91  0.78  0.66  0.53  0.64  0.75  0.86  0.90  0.94  0.98  0.99  0.99  1.00  0.99  0.99  0.98  0.95  0.92  0.88  0.81  0.74  0.67  0.75  0.83
0.91  0.78  0.66  0.53  0.64  0.75  0.86  0.90  0.94  0.98  0.99  0.99  1.00  0.99  0.99  0.98  0.95  0.92  0.88  0.81  0.74  0.67  0.75  0.83
0.91  0.78  0.66  0.53  0.64  0.75  0.86  0.90  0.94  0.98  0.99  0.99  1.00  0.99  0.99  0.98  0.95  0.92  0.88  0.81  0.74  0.67  0.75  0.83
0.91  0.78  0.66  0.53  0.64  0.75  0.86  0.90  0.94  0.98  0.99  0.99  1.00  0.99  0.99  0.98  0.95  0.92  0.88  0.81  0.74  0.67  0.75  0.83
0.91  0.78  0.66  0.53  0.64  0.75  0.86  0.90  0.94  0.98  0.99  0.99  1.00  0.99  0.99  0.98  0.95  0.92  0.88  0.81  0.74  0.67  0.75  0.83
0.91  0.78  0.66  0.53  0.64  0.75  0.86  0.90  0.94  0.98  0.99  0.99  1.00  0.99  0.99  0.98  0.95  0.92  0.88  0.81  0.74  0.67  0.75  0.83
0.91  0.78  0.66  0.53  0.64  0.75  0.86  0.90  0.94  0.98  0.99  0.99  1.00  0.99  0.99  0.98  0.95  0.92  0.88  0.81  0.74  0.67  0.75  0.83
0.91  0.78  0.66  0.53  0.64  0.75  0.86  0.90  0.94  0.98  0.99  0.99  1.00  0.99  0.99  0.98  0.95  0.92  0.88  0.81  0.74  0.67  0.75  0.83
0.91  0.78  0.66  0.53  0.64  0.75  0.86  0.90  0.94  0.98  0.99  0.99  1.00  0.99  0.99  0.98  0.95  0.92  0.88  0.81  0.74  0.67  0.75  0.83
0.91  0.78  0.66  0.53  0.64  0.75  0.86  0.90  0.94  0.98  0.99  0.99  1.00  0.99  0.99  0.98  0.95  0.92  0.88  0.81  0.74  0.67  0.75  0.83
0.91  0.78  0.66  0.53  0.64  0.75  0.86  0.90  0.94  0.98  0.99  0.99  1.00  0.99  0.99  0.98  0.95  0.92  0.88  0.81  0.74  0.67  0.75  0.83
0.91  0.78  0.66  0.53  0.64  0.75  0.86  0.90  0.94  0.98  0.99  0.99  1.00  0.99  0.99  0.98  0.95  0.92  0.88  0.81  0.74  0.67  0.75  0.83
0.91  0.78  0.66  0.53  0.64  0.75  0.86  0.90  0.94  0.98  0.99  0.99  1.00  0.99  0.99  0.98  0.95  0.92  0.88  0.81  0.74  0.67  0.75  0.83
0.91  0.78  0.66  0.53  0.64  0.75  0.86  0.90  0.94  0.98  0.99  0.99  1.00  0.99  0.99  0.98  0.95  0.92  0.88  0.81  0.74  0.67  0.75  0.83
$ ilon ilat of the cell. lon: 6.95347585, 33.15382488
47   1
$ sizes of the cell in km
    74.357       71.714       66.518       62.961       60.799       58.387       60.523       63.522       66.310       70.700       74.201       76.762       74.357       71.714       66.518       62.961       60.799       58.387       60.523       63.522       66.310       70.700       74.201       76.762
$ mean alpha: 0.883439387654
$ mean beta: 0.883439387654
$alpha by ik, ith
1.00  1.00  1.00  1.00  1.00  1.00  1.00  0.82  0.65  0.47  0.52  0.57  0.63  0.74  0.86  0.97  0.98  0.99  1.00  1.00  1.00  1.00  1.00  1.00
1.00  1.00  1.00  1.00  1.00  1.00  1.00  0.82  0.65  0.47  0.52  0.57  0.63  0.74  0.86  0.97  0.98  0.99  1.00  1.00  1.00  1.00  1.00  1.00
1.00  1.00  1.00  1.00  1.00  1.00  1.00  0.82  0.65  0.47  0.52  0.57  0.63  0.74  0.86  0.97  0.98  0.99  1.00  1.00  1.00  1.00  1.00  1.00
1.00  1.00  1.00  1.00  1.00  1.00  1.00  0.82  0.65  0.47  0.52  0.57  0.63  0.74  0.86  0.97  0.98  0.99  1.00  1.00  1.00  1.00  1.00  1.00
1.00  1.00  1.00  1.00  1.00  1.00  1.00  0.82  0.65  0.47  0.52  0.57  0.63  0.74  0.86  0.97  0.98  0.99  1.00  1.00  1.00  1.00  1.00  1.00
1.00  1.00  1.00  1.00  1.00  1.00  1.00  0.82  0.65  0.47  0.52  0.57  0.63  0.74  0.86  0.97  0.98  0.99  1.00  1.00  1.00  1.00  1.00  1.00
1.00  1.00  1.00  1.00  1.00  1.00  1.00  0.82  0.65  0.47  0.52  0.57  0.63  0.74  0.86  0.97  0.98  0.99  1.00  1.00  1.00  1.00  1.00  1.00
1.00  1.00  1.00  1.00  1.00  1.00  1.00  0.82  0.65  0.47  0.52  0.57  0.63  0.74  0.86  0.97  0.98  0.99  1.00  1.00  1.00  1.00  1.00  1.00
1.00  1.00  1.00  1.00  1.00  1.00  1.00  0.82  0.65  0.47  0.52  0.57  0.63  0.74  0.86  0.97  0.98  0.99  1.00  1.00  1.00  1.00  1.00  1.00
1.00  1.00  1.00  1.00  1.00  1.00  1.00  0.82  0.65  0.47  0.52  0.57  0.63  0.74  0.86  0.97  0.98  0.99  1.00  1.00  1.00  1.00  1.00  1.00
1.00  1.00  1.00  1.00  1.00  1.00  1.00  0.82  0.65  0.47  0.52  0.57  0.63  0.74  0.86  0.97  0.98  0.99  1.00  1.00  1.00  1.00  1.00  1.00
1.00  1.00  1.00  1.00  1.00  1.00  1.00  0.82  0.65  0.47  0.52  0.57  0.63  0.74  0.86  0.97  0.98  0.99  1.00  1.00  1.00  1.00  1.00  1.00
1.00  1.00  1.00  1.00  1.00  1.00  1.00  0.82  0.65  0.47  0.52  0.57  0.63  0.74  0.86  0.97  0.98  0.99  1.00  1.00  1.00  1.00  1.00  1.00
1.00  1.00  1.00  1.00  1.00  1.00  1.00  0.82  0.65  0.47  0.52  0.57  0.63  0.74  0.86  0.97  0.98  0.99  1.00  1.00  1.00  1.00  1.00  1.00
1.00  1.00  1.00  1.00  1.00  1.00  1.00  0.82  0.65  0.47  0.52  0.57  0.63  0.74  0.86  0.97  0.98  0.99  1.00  1.00  1.00  1.00  1.00  1.00
1.00  1.00  1.00  1.00  1.00  1.00  1.00  0.82  0.65  0.47  0.52  0.57  0.63  0.74  0.86  0.97  0.98  0.99  1.00  1.00  1.00  1.00  1.00  1.00
1.00  1.00  1.00  1.00  1.00  1.00  1.00  0.82  0.65  0.47  0.52  0.57  0.63  0.74  0.86  0.97  0.98  0.99  1.00  1.00  1.00  1.00  1.00  1.00
1.00  1.00  1.00  1.00  1.00  1.00  1.00  0.82  0.65  0.47  0.52  0.57  0.63  0.74  0.86  0.97  0.98  0.99  1.00  1.00  1.00  1.00  1.00  1.00
1.00  1.00  1.00  1.00  1.00  1.00  1.00  0.82  0.65  0.47  0.52  0.57  0.63  0.74  0.86  0.97  0.98  0.99  1.00  1.00  1.00  1.00  1.00  1.00
1.00  1.00  1.00  1.00  1.00  1.00  1.00  0.82  0.65  0.47  0.52  0.57  0.63  0.74  0.86  0.97  0.98  0.99  1.00  1.00  1.00  1.00  1.00  1.00
1.00  1.00  1.00  1.00  1.00  1.00  1.00  0.82  0.65  0.47  0.52  0.57  0.63  0.74  0.86  0.97  0.98  0.99  1.00  1.00  1.00  1.00  1.00  1.00
1.00  1.00  1.00  1.00  1.00  1.00  1.00  0.82  0.65  0.47  0.52  0.57  0.63  0.74  0.86  0.97  0.98  0.99  1.00  1.00  1.00  1.00  1.00  1.00
1.00  1.00  1.00  1.00  1.00  1.00  1.00  0.82  0.65  0.47  0.52  0.57  0.63  0.74  0.86  0.97  0.98  0.99  1.00  1.00  1.00  1.00  1.00  1.00
1.00  1.00  1.00  1.00  1.00  1.00  1.00  0.82  0.65  0.47  0.52  0.57  0.63  0.74  0.86  0.97  0.98  0.99  1.00  1.00  1.00  1.00  1.00  1.00
1.00  1.00  1.00  1.00  1.00  1.00  1.00  0.82  0.65  0.47  0.52  0.57  0.63  0.74  0.86  0.97  0.98  0.99  1.00  1.00  1.00  1.00  1.00  1.00
$beta by ik, ith
1.00  1.00  1.00  1.00  1.00  1.00  1.00  0.82  0.65  0.47  0.52  0.57  0.63  0.74  0.86  0.97  0.98  0.99  1.00  1.00  1.00  1.00  1.00  1.00
1.00  1.00  1.00  1.00  1.00  1.00  1.00  0.82  0.65  0.47  0.52  0.57  0.63  0.74  0.86  0.97  0.98  0.99  1.00  1.00  1.00  1.00  1.00  1.00
1.00  1.00  1.00  1.00  1.00  1.00  1.00  0.82  0.65  0.47  0.52  0.57  0.63  0.74  0.86  0.97  0.98  0.99  1.00  1.00  1.00  1.00  1.00  1.00
1.00  1.00  1.00  1.00  1.00  1.00  1.00  0.82  0.65  0.47  0.52  0.57  0.63  0.74  0.86  0.97  0.98  0.99  1.00  1.00  1.00  1.00  1.00  1.00
1.00  1.00  1.00  1.00  1.00  1.00  1.00  0.82  0.65  0.47  0.52  0.57  0.63  0.74  0.86  0.97  0.98  0.99  1.00  1.00  1.00  1.00  1.00  1.00
1.00  1.00  1.00  1.00  1.00  1.00  1.00  0.82  0.65  0.47  0.52  0.57  0.63  0.74  0.86  0.97  0.98  0.99  1.00  1.00  1.00  1.00  1.00  1.00
1.00  1.00  1.00  1.00  1.00  1.00  1.00  0.82  0.65  0.47  0.52  0.57  0.63  0.74  0.86  0.97  0.98  0.99  1.00  1.00  1.00  1.00  1.00  1.00
1.00  1.00  1.00  1.00  1.00  1.00  1.00  0.82  0.65  0.47  0.52  0.57  0.63  0.74  0.86  0.97  0.98  0.99  1.00  1.00  1.00  1.00  1.00  1.00
1.00  1.00  1.00  1.00  1.00  1.00  1.00  0.82  0.65  0.47  0.52  0.57  0.63  0.74  0.86  0.97  0.98  0.99  1.00  1.00  1.00  1.00  1.00  1.00
1.00  1.00  1.00  1.00  1.00  1.00  1.00  0.82  0.65  0.47  0.52  0.57  0.63  0.74  0.86  0.97  0.98  0.99  1.00  1.00  1.00  1.00  1.00  1.00
1.00  1.00  1.00  1.00  1.00  1.00  1.00  0.82  0.65  0.47  0.52  0.57  0.63  0.74  0.86  0.97  0.98  0.99  1.00  1.00  1.00  1.00  1.00  1.00
1.00  1.00  1.00  1.00  1.00  1.00  1.00  0.82  0.65  0.47  0.52  0.57  0.63  0.74  0.86  0.97  0.98  0.99  1.00  1.00  1.00  1.00  1.00  1.00
1.00  1.00  1.00  1.00  1.00  1.00  1.00  0.82  0.65  0.47  0.52  0.57  0.63  0.74  0.86  0.97  0.98  0.99  1.00  1.00  1.00  1.00  1.00  1.00
1.00  1.00  1.00  1.00  1.00  1.00  1.00  0.82  0.65  0.47  0.52  0.57  0.63  0.74  0.86  0.97  0.98  0.99  1.00  1.00  1.00  1.00  1.00  1.00
1.00  1.00  1.00  1.00  1.00  1.00  1.00  0.82  0.65  0.47  0.52  0.57  0.63  0.74  0.86  0.97  0.98  0.99  1.00  1.00  1.00  1.00  1.00  1.00
1.00  1.00  1.00  1.00  1.00  1.00  1.00  0.82  0.65  0.47  0.52  0.57  0.63  0.74  0.86  0.97  0.98  0.99  1.00  1.00  1.00  1.00  1.00  1.00
1.00  1.00  1.00  1.00  1.00  1.00  1.00  0.82  0.65  0.47  0.52  0.57  0.63  0.74  0.86  0.97  0.98  0.99  1.00  1.00  1.00  1.00  1.00  1.00
1.00  1.00  1.00  1.00  1.00  1.00  1.00  0.82  0.65  0.47  0.52  0.57  0.63  0.74  0.86  0.97  0.98  0.99  1.00  1.00  1.00  1.00  1.00  1.00
1.00  1.00  1.00  1.00  1.00  1.00  1.00  0.82  0.65  0.47  0.52  0.57  0.63  0.74  0.86  0.97  0.98  0.99  1.00  1.00  1.00  1.00  1.00  1.00
1.00  1.00  1.00  1.00  1.00  1.00  1.00  0.82  0.65  0.47  0.52  0.57  0.63  0.74  0.86  0.97  0.98  0.99  1.00  1.00  1.00  1.00  1.00  1.00
1.00  1.00  1.00  1.00  1.00  1.00  1.00  0.82  0.65  0.47  0.52  0.57  0.63  0.74  0.86  0.97  0.98  0.99  1.00  1.00  1.00  1.00  1.00  1.00
1.00  1.00  1.00  1.00  1.00  1.00  1.00  0.82  0.65  0.47  0.52  0.57  0.63  0.74  0.86  0.97  0.98  0.99  1.00  1.00  1.00  1.00  1.00  1.00
1.00  1.00  1.00  1.00  1.00  1.00  1.00  0.82  0.65  0.47  0.52  0.57  0.63  0.74  0.86  0.97  0.98  0.99  1.00  1.00  1.00  1.00  1.00  1.00
1.00  1.00  1.00  1.00  1.00  1.00  1.00  0.82  0.65  0.47  0.52  0.57  0.63  0.74  0.86  0.97  0.98  0.99  1.00  1.00  1.00  1.00  1.00  1.00
1.00  1.00  1.00  1.00  1.00  1.00  1.00  0.82  0.65  0.47  0.52  0.57  0.63  0.74  0.86  0.97  0.98  0.99  1.00  1.00  1.00  1.00  1.00  1.00
$ ilon ilat of the cell. lon: 7.45817242, 32.02599122
48   1
$ sizes of the cell in km
    65.566       65.525       66.298       64.884       64.416       63.579       63.790       63.841       62.967       62.928       64.618       65.915       65.566       65.525       66.298       64.884       64.416       63.579       63.790       63.841       62.967       62.928       64.618       65.915
$ mean alpha: 0.686380554981
$ mean beta: 0.790220619197
$alpha by ik, ith
1.00  1.00  1.00  1.00  1.00  1.00  1.00  0.70  0.40  0.10  0.20  0.30  0.40  0.26  0.13  0.00  0.33  0.67  1.00  1.00  1.00  1.00  1.00  1.00
1.00  1.00  1.00  1.00  1.00  1.00  1.00  0.70  0.40  0.10  0.20  0.30  0.40  0.26  0.13  0.00  0.33  0.67  1.00  1.00  1.00  1.00  1.00  1.00
1.00  1.00  1.00  1.00  1.00  1.00  1.00  0.70  0.40  0.10  0.20  0.30  0.40  0.26  0.13  0.00  0.33  0.67  1.00  1.00  1.00  1.00  1.00  1.00
1.00  1.00  1.00  1.00  1.00  1.00  1.00  0.70  0.40  0.10  0.20  0.30  0.40  0.26  0.13  0.00  0.33  0.67  1.00  1.00  1.00  1.00  1.00  1.00
1.00  1.00  1.00  1.00  1.00  1.00  1.00  0.70  0.40  0.10  0.20  0.30  0.40  0.26  0.13  0.00  0.33  0.67  1.00  1.00  1.00  1.00  1.00  1.00
1.00  1.00  1.00  1.00  1.00  1.00  1.00  0.70  0.40  0.10  0.20  0.30  0.40  0.26  0.13  0.00  0.33  0.67  1.00  1.00  1.00  1.00  1.00  1.00
1.00  1.00  1.00  1.00  1.00  1.00  1.00  0.70  0.40  0.10  0.20  0.30  0.40  0.26  0.13  0.00  0.33  0.67  1.00  1.00  1.00  1.00  1.00  1.00
1.00  1.00  1.00  1.00  1.00  1.00  1.00  0.70  0.40  0.10  0.20  0.30  0.40  0.26  0.13  0.00  0.33  0.67  1.00  1.00  1.00  1.00  1.00  1.00
1.00  1.00  1.00  1.00  1.00  1.00  1.00  0.70  0.40  0.10  0.20  0.30  0.40  0.26  0.13  0.00  0.33  0.67  1.00  1.00  1.00  1.00  1.00  1.00
1.00  1.00  1.00  1.00  1.00  1.00  1.00  0.70  0.40  0.10  0.20  0.30  0.40  0.26  0.13  0.00  0.33  0.67  1.00  1.00  1.00  1.00  1.00  1.00
1.00  1.00  1.00  1.00  1.00  1.00  1.00  0.70  0.40  0.10  0.20  0.30  0.40  0.26  0.13  0.00  0.33  0.67  1.00  1.00  1.00  1.00  1.00  1.00
1.00  1.00  1.00  1.00  1.00  1.00  1.00  0.70  0.40  0.10  0.20  0.30  0.40  0.26  0.13  0.00  0.33  0.67  1.00  1.00  1.00  1.00  1.00  1.00
1.00  1.00  1.00  1.00  1.00  1.00  1.00  0.70  0.40  0.10  0.20  0.30  0.40  0.26  0.13  0.00  0.33  0.67  1.00  1.00  1.00  1.00  1.00  1.00
1.00  1.00  1.00  1.00  1.00  1.00  1.00  0.70  0.40  0.10  0.20  0.30  0.40  0.26  0.13  0.00  0.33  0.67  1.00  1.00  1.00  1.00  1.00  1.00
1.00  1.00  1.00  1.00  1.00  1.00  1.00  0.70  0.40  0.10  0.20  0.30  0.40  0.26  0.13  0.00  0.33  0.67  1.00  1.00  1.00  1.00  1.00  1.00
1.00  1.00  1.00  1.00  1.00  1.00  1.00  0.70  0.40  0.10  0.20  0.30  0.40  0.26  0.13  0.00  0.33  0.67  1.00  1.00  1.00  1.00  1.00  1.00
1.00  1.00  1.00  1.00  1.00  1.00  1.00  0.70  0.40  0.10  0.20  0.30  0.40  0.26  0.13  0.00  0.33  0.67  1.00  1.00  1.00  1.00  1.00  1.00
1.00  1.00  1.00  1.00  1.00  1.00  1.00  0.70  0.40  0.10  0.20  0.30  0.40  0.26  0.13  0.00  0.33  0.67  1.00  1.00  1.00  1.00  1.00  1.00
1.00  1.00  1.00  1.00  1.00  1.00  1.00  0.70  0.40  0.10  0.20  0.30  0.40  0.26  0.13  0.00  0.33  0.67  1.00  1.00  1.00  1.00  1.00  1.00
1.00  1.00  1.00  1.00  1.00  1.00  1.00  0.70  0.40  0.10  0.20  0.30  0.40  0.26  0.13  0.00  0.33  0.67  1.00  1.00  1.00  1.00  1.00  1.00
1.00  1.00  1.00  1.00  1.00  1.00  1.00  0.70  0.40  0.10  0.20  0.30  0.40  0.26  0.13  0.00  0.33  0.67  1.00  1.00  1.00  1.00  1.00  1.00
1.00  1.00  1.00  1.00  1.00  1.00  1.00  0.70  0.40  0.10  0.20  0.30  0.40  0.26  0.13  0.00  0.33  0.67  1.00  1.00  1.00  1.00  1.00  1.00
1.00  1.00  1.00  1.00  1.00  1.00  1.00  0.70  0.40  0.10  0.20  0.30  0.40  0.26  0.13  0.00  0.33  0.67  1.00  1.00  1.00  1.00  1.00  1.00
1.00  1.00  1.00  1.00  1.00  1.00  1.00  0.70  0.40  0.10  0.20  0.30  0.40  0.26  0.13  0.00  0.33  0.67  1.00  1.00  1.00  1.00  1.00  1.00
1.00  1.00  1.00  1.00  1.00  1.00  1.00  0.70  0.40  0.10  0.20  0.30  0.40  0.26  0.13  0.00  0.33  0.67  1.00  1.00  1.00  1.00  1.00  1.00
$beta by ik, ith
1.00  1.00  1.00  1.00  1.00  1.00  1.00  0.80  0.61  0.41  0.49  0.56  0.64  0.52  0.39  0.27  0.52  0.76  1.00  1.00  1.00  1.00  1.00  1.00
1.00  1.00  1.00  1.00  1.00  1.00  1.00  0.80  0.61  0.41  0.49  0.56  0.64  0.52  0.39  0.27  0.52  0.76  1.00  1.00  1.00  1.00  1.00  1.00
1.00  1.00  1.00  1.00  1.00  1.00  1.00  0.80  0.61  0.41  0.49  0.56  0.64  0.52  0.39  0.27  0.52  0.76  1.00  1.00  1.00  1.00  1.00  1.00
1.00  1.00  1.00  1.00  1.00  1.00  1.00  0.80  0.61  0.41  0.49  0.56  0.64  0.52  0.39  0.27  0.52  0.76  1.00  1.00  1.00  1.00  1.00  1.00
1.00  1.00  1.00  1.00  1.00  1.00  1.00  0.80  0.61  0.41  0.49  0.56  0.64  0.52  0.39  0.27  0.52  0.76  1.00  1.00  1.00  1.00  1.00  1.00
1.00  1.00  1.00  1.00  1.00  1.00  1.00  0.80  0.61  0.41  0.49  0.56  0.64  0.52  0.39  0.27  0.52  0.76  1.00  1.00  1.00  1.00  1.00  1.00
1.00  1.00  1.00  1.00  1.00  1.00  1.00  0.80  0.61  0.41  0.49  0.56  0.64  0.52  0.39  0.27  0.52  0.76  1.00  1.00  1.00  1.00  1.00  1.00
1.00  1.00  1.00  1.00  1.00  1.00  1.00  0.80  0.61  0.41  0.49  0.56  0.64  0.52  0.39  0.27  0.52  0.76  1.00  1.00  1.00  1.00  1.00  1.00
1.00  1.00  1.00  1.00  1.00  1.00  1.00  0.80  0.61  0.41  0.49  0.56  0.64  0.52  0.39  0.27  0.52  0.76  1.00  1.00  1.00  1.00  1.00  1.00
1.00  1.00  1.00  1.00  1.00  1.00  1.00  0.80  0.61  0.41  0.49  0.56  0.64  0.52  0.39  0.27  0.52  0.76  1.00  1.00  1.00  1.00  1.00  1.00
1.00  1.00  1.00  1.00  1.00  1.00  1.00  0.80  0.61  0.41  0.49  0.56  0.64  0.52  0.39  0.27  0.52  0.76  1.00  1.00  1.00  1.00  1.00  1.00
1.00  1.00  1.00  1.00  1.00  1.00  1.00  0.80  0.61  0.41  0.49  0.56  0.64  0.52  0.39  0.27  0.52  0.76  1.00  1.00  1.00  1.00  1.00  1.00
1.00  1.00  1.00  1.00  1.00  1.00  1.00  0.80  0.61  0.41  0.49  0.56  0.64  0.52  0.39  0.27  0.52  0.76  1.00  1.00  1.00  1.00  1.00  1.00
1.00  1.00  1.00  1.00  1.00  1.00  1.00  0.80  0.61  0.41  0.49  0.56  0.64  0.52  0.39  0.27  0.52  0.76  1.00  1.00  1.00  1.00  1.00  1.00
1.00  1.00  1.00  1.00  1.00  1.00  1.00  0.80  0.61  0.41  0.49  0.56  0.64  0.52  0.39  0.27  0.52  0.76  1.00  1.00  1.00  1.00  1.00  1.00
1.00  1.00  1.00  1.00  1.00  1.00  1.00  0.80  0.61  0.41  0.49  0.56  0.64  0.52  0.39  0.27  0.52  0.76  1.00  1.00  1.00  1.00  1.00  1.00
1.00  1.00  1.00  1.00  1.00  1.00  1.00  0.80  0.61  0.41  0.49  0.56  0.64  0.52  0.39  0.27  0.52  0.76  1.00  1.00  1.00  1.00  1.00  1.00
1.00  1.00  1.00  1.00  1.00  1.00  1.00  0.80  0.61  0.41  0.49  0.56  0.64  0.52  0.39  0.27  0.52  0.76  1.00  1.00  1.00  1.00  1.00  1.00
1.00  1.00  1.00  1.00  1.00  1.00  1.00  0.80  0.61  0.41  0.49  0.56  0.64  0.52  0.39  0.27  0.52  0.76  1.00  1.00  1.00  1.00  1.00  1.00
1.00  1.00  1.00  1.00  1.00  1.00  1.00  0.80  0.61  0.41  0.49  0.56  0.64  0.52  0.39  0.27  0.52  0.76  1.00  1.00  1.00  1.00  1.00  1.00
1.00  1.00  1.00  1.00  1.00  1.00  1.00  0.80  0.61  0.41  0.49  0.56  0.64  0.52  0.39  0.27  0.52  0.76  1.00  1.00  1.00  1.00  1.00  1.00
1.00  1.00  1.00  1.00  1.00  1.00  1.00  0.80  0.61  0.41  0.49  0.56  0.64  0.52  0.39  0.27  0.52  0.76  1.00  1.00  1.00  1.00  1.00  1.00
1.00  1.00  1.00  1.00  1.00  1.00  1.00  0.80  0.61  0.41  0.49  0.56  0.64  0.52  0.39  0.27  0.52  0.76  1.00  1.00  1.00  1.00  1.00  1.00
1.00  1.00  1.00  1.00  1.00  1.00  1.00  0.80  0.61  0.41  0.49  0.56  0.64  0.52  0.39  0.27  0.52  0.76  1.00  1.00  1.00  1.00  1.00  1.00
1.00  1.00  1.00  1.00  1.00  1.00  1.00  0.80  0.61  0.41  0.49  0.56  0.64  0.52  0.39  0.27  0.52  0.76  1.00  1.00  1.00  1.00  1.00  1.00
$ ilon ilat of the cell. lon: 6.74062712, 32.70987321
49   1
$ sizes of the cell in km
    64.883       66.020       68.678       71.257       69.801       68.534       66.434       67.358       67.975       68.413       67.479       65.480       64.883       66.020       68.678       71.257       69.801       68.534       66.434       67.358       67.975       68.413       67.479       65.480
$ mean alpha: 0.925481212817
$ mean beta: 0.925481212817
$alpha by ik, ith
1.00  1.00  1.00  1.00  1.00  1.00  1.00  1.00  1.00  1.00  0.80  0.60  0.40  0.60  0.80  1.00  1.00  1.00  1.00  1.00  1.00  1.00  1.00  1.00
1.00  1.00  1.00  1.00  1.00  1.00  1.00  1.00  1.00  1.00  0.80  0.60  0.40  0.60  0.80  1.00  1.00  1.00  1.00  1.00  1.00  1.00  1.00  1.00
1.00  1.00  1.00  1.00  1.00  1.00  1.00  1.00  1.00  1.00  0.80  0.60  0.40  0.60  0.80  1.00  1.00  1.00  1.00  1.00  1.00  1.00  1.00  1.00
1.00  1.00  1.00  1.00  1.00  1.00  1.00  1.00  1.00  1.00  0.80  0.60  0.40  0.60  0.80  1.00  1.00  1.00  1.00  1.00  1.00  1.00  1.00  1.00
1.00  1.00  1.00  1.00  1.00  1.00  1.00  1.00  1.00  1.00  0.80  0.60  0.40  0.60  0.80  1.00  1.00  1.00  1.00  1.00  1.00  1.00  1.00  1.00
1.00  1.00  1.00  1.00  1.00  1.00  1.00  1.00  1.00  1.00  0.80  0.60  0.40  0.60  0.80  1.00  1.00  1.00  1.00  1.00  1.00  1.00  1.00  1.00
1.00  1.00  1.00  1.00  1.00  1.00  1.00  1.00  1.00  1.00  0.80  0.60  0.40  0.60  0.80  1.00  1.00  1.00  1.00  1.00  1.00  1.00  1.00  1.00
1.00  1.00  1.00  1.00  1.00  1.00  1.00  1.00  1.00  1.00  0.80  0.60  0.40  0.60  0.80  1.00  1.00  1.00  1.00  1.00  1.00  1.00  1.00  1.00
1.00  1.00  1.00  1.00  1.00  1.00  1.00  1.00  1.00  1.00  0.80  0.60  0.40  0.60  0.80  1.00  1.00  1.00  1.00  1.00  1.00  1.00  1.00  1.00
1.00  1.00  1.00  1.00  1.00  1.00  1.00  1.00  1.00  1.00  0.80  0.60  0.40  0.60  0.80  1.00  1.00  1.00  1.00  1.00  1.00  1.00  1.00  1.00
1.00  1.00  1.00  1.00  1.00  1.00  1.00  1.00  1.00  1.00  0.80  0.60  0.40  0.60  0.80  1.00  1.00  1.00  1.00  1.00  1.00  1.00  1.00  1.00
1.00  1.00  1.00  1.00  1.00  1.00  1.00  1.00  1.00  1.00  0.80  0.60  0.40  0.60  0.80  1.00  1.00  1.00  1.00  1.00  1.00  1.00  1.00  1.00
1.00  1.00  1.00  1.00  1.00  1.00  1.00  1.00  1.00  1.00  0.80  0.60  0.40  0.60  0.80  1.00  1.00  1.00  1.00  1.00  1.00  1.00  1.00  1.00
1.00  1.00  1.00  1.00  1.00  1.00  1.00  1.00  1.00  1.00  0.80  0.60  0.40  0.60  0.80  1.00  1.00  1.00  1.00  1.00  1.00  1.00  1.00  1.00
1.00  1.00  1.00  1.00  1.00  1.00  1.00  1.00  1.00  1.00  0.80  0.60  0.40  0.60  0.80  1.00  1.00  1.00  1.00  1.00  1.00  1.00  1.00  1.00
1.00  1.00  1.00  1.00  1.00  1.00  1.00  1.00  1.00  1.00  0.80  0.60  0.40  0.60  0.80  1.00  1.00  1.00  1.00  1.00  1.00  1.00  1.00  1.00
1.00  1.00  1.00  1.00  1.00  1.00  1.00  1.00  1.00  1.00  0.80  0.60  0.40  0.60  0.80  1.00  1.00  1.00  1.00  1.00  1.00  1.00  1.00  1.00
1.00  1.00  1.00  1.00  1.00  1.00  1.00  1.00  1.00  1.00  0.80  0.60  0.40  0.60  0.80  1.00  1.00  1.00  1.00  1.00  1.00  1.00  1.00  1.00
1.00  1.00  1.00  1.00  1.00  1.00  1.00  1.00  1.00  1.00  0.80  0.60  0.40  0.60  0.80  1.00  1.00  1.00  1.00  1.00  1.00  1.00  1.00  1.00
1.00  1.00  1.00  1.00  1.00  1.00  1.00  1.00  1.00  1.00  0.80  0.60  0.40  0.60  0.80  1.00  1.00  1.00  1.00  1.00  1.00  1.00  1.00  1.00
1.00  1.00  1.00  1.00  1.00  1.00  1.00  1.00  1.00  1.00  0.80  0.60  0.40  0.60  0.80  1.00  1.00  1.00  1.00  1.00  1.00  1.00  1.00  1.00
1.00  1.00  1.00  1.00  1.00  1.00  1.00  1.00  1.00  1.00  0.80  0.60  0.40  0.60  0.80  1.00  1.00  1.00  1.00  1.00  1.00  1.00  1.00  1.00
1.00  1.00  1.00  1.00  1.00  1.00  1.00  1.00  1.00  1.00  0.80  0.60  0.40  0.60  0.80  1.00  1.00  1.00  1.00  1.00  1.00  1.00  1.00  1.00
1.00  1.00  1.00  1.00  1.00  1.00  1.00  1.00  1.00  1.00  0.80  0.60  0.40  0.60  0.80  1.00  1.00  1.00  1.00  1.00  1.00  1.00  1.00  1.00
1.00  1.00  1.00  1.00  1.00  1.00  1.00  1.00  1.00  1.00  0.80  0.60  0.40  0.60  0.80  1.00  1.00  1.00  1.00  1.00  1.00  1.00  1.00  1.00
$beta by ik, ith
1.00  1.00  1.00  1.00  1.00  1.00  1.00  1.00  1.00  1.00  0.80  0.60  0.40  0.60  0.80  1.00  1.00  1.00  1.00  1.00  1.00  1.00  1.00  1.00
1.00  1.00  1.00  1.00  1.00  1.00  1.00  1.00  1.00  1.00  0.80  0.60  0.40  0.60  0.80  1.00  1.00  1.00  1.00  1.00  1.00  1.00  1.00  1.00
1.00  1.00  1.00  1.00  1.00  1.00  1.00  1.00  1.00  1.00  0.80  0.60  0.40  0.60  0.80  1.00  1.00  1.00  1.00  1.00  1.00  1.00  1.00  1.00
1.00  1.00  1.00  1.00  1.00  1.00  1.00  1.00  1.00  1.00  0.80  0.60  0.40  0.60  0.80  1.00  1.00  1.00  1.00  1.00  1.00  1.00  1.00  1.00
1.00  1.00  1.00  1.00  1.00  1.00  1.00  1.00  1.00  1.00  0.80  0.60  0.40  0.60  0.80  1.00  1.00  1.00  1.00  1.00  1.00  1.00  1.00  1.00
1.00  1.00  1.00  1.00  1.00  1.00  1.00  1.00  1.00  1.00  0.80  0.60  0.40  0.60  0.80  1.00  1.00  1.00  1.00  1.00  1.00  1.00  1.00  1.00
1.00  1.00  1.00  1.00  1.00  1.00  1.00  1.00  1.00  1.00  0.80  0.60  0.40  0.60  0.80  1.00  1.00  1.00  1.00  1.00  1.00  1.00  1.00  1.00
1.00  1.00  1.00  1.00  1.00  1.00  1.00  1.00  1.00  1.00  0.80  0.60  0.40  0.60  0.80  1.00  1.00  1.00  1.00  1.00  1.00  1.00  1.00  1.00
1.00  1.00  1.00  1.00  1.00  1.00  1.00  1.00  1.00  1.00  0.80  0.60  0.40  0.60  0.80  1.00  1.00  1.00  1.00  1.00  1.00  1.00  1.00  1.00
1.00  1.00  1.00  1.00  1.00  1.00  1.00  1.00  1.00  1.00  0.80  0.60  0.40  0.60  0.80  1.00  1.00  1.00  1.00  1.00  1.00  1.00  1.00  1.00
1.00  1.00  1.00  1.00  1.00  1.00  1.00  1.00  1.00  1.00  0.80  0.60  0.40  0.60  0.80  1.00  1.00  1.00  1.00  1.00  1.00  1.00  1.00  1.00
1.00  1.00  1.00  1.00  1.00  1.00  1.00  1.00  1.00  1.00  0.80  0.60  0.40  0.60  0.80  1.00  1.00  1.00  1.00  1.00  1.00  1.00  1.00  1.00
1.00  1.00  1.00  1.00  1.00  1.00  1.00  1.00  1.00  1.00  0.80  0.60  0.40  0.60  0.80  1.00  1.00  1.00  1.00  1.00  1.00  1.00  1.00  1.00
1.00  1.00  1.00  1.00  1.00  1.00  1.00  1.00  1.00  1.00  0.80  0.60  0.40  0.60  0.80  1.00  1.00  1.00  1.00  1.00  1.00  1.00  1.00  1.00
1.00  1.00  1.00  1.00  1.00  1.00  1.00  1.00  1.00  1.00  0.80  0.60  0.40  0.60  0.80  1.00  1.00  1.00  1.00  1.00  1.00  1.00  1.00  1.00
1.00  1.00  1.00  1.00  1.00  1.00  1.00  1.00  1.00  1.00  0.80  0.60  0.40  0.60  0.80  1.00  1.00  1.00  1.00  1.00  1.00  1.00  1.00  1.00
1.00  1.00  1.00  1.00  1.00  1.00  1.00  1.00  1.00  1.00  0.80  0.60  0.40  0.60  0.80  1.00  1.00  1.00  1.00  1.00  1.00  1.00  1.00  1.00
1.00  1.00  1.00  1.00  1.00  1.00  1.00  1.00  1.00  1.00  0.80  0.60  0.40  0.60  0.80  1.00  1.00  1.00  1.00  1.00  1.00  1.00  1.00  1.00
1.00  1.00  1.00  1.00  1.00  1.00  1.00  1.00  1.00  1.00  0.80  0.60  0.40  0.60  0.80  1.00  1.00  1.00  1.00  1.00  1.00  1.00  1.00  1.00
1.00  1.00  1.00  1.00  1.00  1.00  1.00  1.00  1.00  1.00  0.80  0.60  0.40  0.60  0.80  1.00  1.00  1.00  1.00  1.00  1.00  1.00  1.00  1.00
1.00  1.00  1.00  1.00  1.00  1.00  1.00  1.00  1.00  1.00  0.80  0.60  0.40  0.60  0.80  1.00  1.00  1.00  1.00  1.00  1.00  1.00  1.00  1.00
1.00  1.00  1.00  1.00  1.00  1.00  1.00  1.00  1.00  1.00  0.80  0.60  0.40  0.60  0.80  1.00  1.00  1.00  1.00  1.00  1.00  1.00  1.00  1.00
1.00  1.00  1.00  1.00  1.00  1.00  1.00  1.00  1.00  1.00  0.80  0.60  0.40  0.60  0.80  1.00  1.00  1.00  1.00  1.00  1.00  1.00  1.00  1.00
1.00  1.00  1.00  1.00  1.00  1.00  1.00  1.00  1.00  1.00  0.80  0.60  0.40  0.60  0.80  1.00  1.00  1.00  1.00  1.00  1.00  1.00  1.00  1.00
1.00  1.00  1.00  1.00  1.00  1.00  1.00  1.00  1.00  1.00  0.80  0.60  0.40  0.60  0.80  1.00  1.00  1.00  1.00  1.00  1.00  1.00  1.00  1.00
$ ilon ilat of the cell. lon: 7.21379879, 31.02571266
52   1
$ sizes of the cell in km
    66.455       64.972       62.414       60.551       59.516       58.131       60.596       62.546       64.269       66.680       67.898       68.989       66.455       64.972       62.414       60.551       59.516       58.131       60.596       62.546       64.269       66.680       67.898       68.989
$ mean alpha: 0.883664924469
$ mean beta: 0.891461533251
$alpha by ik, ith
1.00  1.00  1.00  1.00  1.00  1.00  1.00  0.94  0.88  0.82  0.67  0.53  0.38  0.54  0.71  0.87  0.91  0.96  1.00  1.00  1.00  1.00  1.00  1.00
1.00  1.00  1.00  1.00  1.00  1.00  1.00  0.94  0.88  0.82  0.67  0.53  0.38  0.54  0.71  0.87  0.91  0.96  1.00  1.00  1.00  1.00  1.00  1.00
1.00  1.00  1.00  1.00  1.00  1.00  1.00  0.94  0.88  0.82  0.67  0.53  0.38  0.54  0.71  0.87  0.91  0.96  1.00  1.00  1.00  1.00  1.00  1.00
1.00  1.00  1.00  1.00  1.00  1.00  1.00  0.94  0.88  0.82  0.67  0.53  0.38  0.54  0.71  0.87  0.91  0.96  1.00  1.00  1.00  1.00  1.00  1.00
1.00  1.00  1.00  1.00  1.00  1.00  1.00  0.94  0.88  0.82  0.67  0.53  0.38  0.54  0.71  0.87  0.91  0.96  1.00  1.00  1.00  1.00  1.00  1.00
1.00  1.00  1.00  1.00  1.00  1.00  1.00  0.94  0.88  0.82  0.67  0.53  0.38  0.54  0.71  0.87  0.91  0.96  1.00  1.00  1.00  1.00  1.00  1.00
1.00  1.00  1.00  1.00  1.00  1.00  1.00  0.94  0.88  0.82  0.67  0.53  0.38  0.54  0.71  0.87  0.91  0.96  1.00  1.00  1.00  1.00  1.00  1.00
1.00  1.00  1.00  1.00  1.00  1.00  1.00  0.94  0.88  0.82  0.67  0.53  0.38  0.54  0.71  0.87  0.91  0.96  1.00  1.00  1.00  1.00  1.00  1.00
1.00  1.00  1.00  1.00  1.00  1.00  1.00  0.94  0.88  0.82  0.67  0.53  0.38  0.54  0.71  0.87  0.91  0.96  1.00  1.00  1.00  1.00  1.00  1.00
1.00  1.00  1.00  1.00  1.00  1.00  1.00  0.94  0.88  0.82  0.67  0.53  0.38  0.54  0.71  0.87  0.91  0.96  1.00  1.00  1.00  1.00  1.00  1.00
1.00  1.00  1.00  1.00  1.00  1.00  1.00  0.94  0.88  0.82  0.67  0.53  0.38  0.54  0.71  0.87  0.91  0.96  1.00  1.00  1.00  1.00  1.00  1.00
1.00  1.00  1.00  1.00  1.00  1.00  1.00  0.94  0.88  0.82  0.67  0.53  0.38  0.54  0.71  0.87  0.91  0.96  1.00  1.00  1.00  1.00  1.00  1.00
1.00  1.00  1.00  1.00  1.00  1.00  1.00  0.94  0.88  0.82  0.67  0.53  0.38  0.54  0.71  0.87  0.91  0.96  1.00  1.00  1.00  1.00  1.00  1.00
1.00  1.00  1.00  1.00  1.00  1.00  1.00  0.94  0.88  0.82  0.67  0.53  0.38  0.54  0.71  0.87  0.91  0.96  1.00  1.00  1.00  1.00  1.00  1.00
1.00  1.00  1.00  1.00  1.00  1.00  1.00  0.94  0.88  0.82  0.67  0.53  0.38  0.54  0.71  0.87  0.91  0.96  1.00  1.00  1.00  1.00  1.00  1.00
1.00  1.00  1.00  1.00  1.00  1.00  1.00  0.94  0.88  0.82  0.67  0.53  0.38  0.54  0.71  0.87  0.91  0.96  1.00  1.00  1.00  1.00  1.00  1.00
1.00  1.00  1.00  1.00  1.00  1.00  1.00  0.94  0.88  0.82  0.67  0.53  0.38  0.54  0.71  0.87  0.91  0.96  1.00  1.00  1.00  1.00  1.00  1.00
1.00  1.00  1.00  1.00  1.00  1.00  1.00  0.94  0.88  0.82  0.67  0.53  0.38  0.54  0.71  0.87  0.91  0.96  1.00  1.00  1.00  1.00  1.00  1.00
1.00  1.00  1.00  1.00  1.00  1.00  1.00  0.94  0.88  0.82  0.67  0.53  0.38  0.54  0.71  0.87  0.91  0.96  1.00  1.00  1.00  1.00  1.00  1.00
1.00  1.00  1.00  1.00  1.00  1.00  1.00  0.94  0.88  0.82  0.67  0.53  0.38  0.54  0.71  0.87  0.91  0.96  1.00  1.00  1.00  1.00  1.00  1.00
1.00  1.00  1.00  1.00  1.00  1.00  1.00  0.94  0.88  0.82  0.67  0.53  0.38  0.54  0.71  0.87  0.91  0.96  1.00  1.00  1.00  1.00  1.00  1.00
[...]
1.00  0.92  0.84  0.76  0.84  0.92  1.00  1.00  1.00  1.00  1.00  1.00  1.00  1.00  1.00  1.00  1.00  1.00  1.00  1.00  1.00  1.00  1.00  1.00
1.00  0.92  0.84  0.76  0.84  0.92  1.00  1.00  1.00  1.00  1.00  1.00  1.00  1.00  1.00  1.00  1.00  1.00  1.00  1.00  1.00  1.00  1.00  1.00
1.00  0.92  0.84  0.76  0.84  0.92  1.00  1.00  1.00  1.00  1.00  1.00  1.00  1.00  1.00  1.00  1.00  1.00  1.00  1.00  1.00  1.00  1.00  1.00
1.00  0.92  0.84  0.76  0.84  0.92  1.00  1.00  1.00  1.00  1.00  1.00  1.00  1.00  1.00  1.00  1.00  1.00  1.00  1.00  1.00  1.00  1.00  1.00
1.00  0.92  0.84  0.76  0.84  0.92  1.00  1.00  1.00  1.00  1.00  1.00  1.00  1.00  1.00  1.00  1.00  1.00  1.00  1.00  1.00  1.00  1.00  1.00
1.00  0.92  0.84  0.76  0.84  0.92  1.00  1.00  1.00  1.00  1.00  1.00  1.00  1.00  1.00  1.00  1.00  1.00  1.00  1.00  1.00  1.00  1.00  1.00
1.00  0.92  0.84  0.76  0.84  0.92  1.00  1.00  1.00  1.00  1.00  1.00  1.00  1.00  1.00  1.00  1.00  1.00  1.00  1.00  1.00  1.00  1.00  1.00
$beta by ik, ith
1.00  0.94  0.87  0.81  0.87  0.94  1.00  1.00  1.00  1.00  1.00  1.00  1.00  1.00  1.00  1.00  1.00  1.00  1.00  1.00  1.00  1.00  1.00  1.00
1.00  0.94  0.87  0.81  0.87  0.94  1.00  1.00  1.00  1.00  1.00  1.00  1.00  1.00  1.00  1.00  1.00  1.00  1.00  1.00  1.00  1.00  1.00  1.00
1.00  0.94  0.87  0.81  0.87  0.94  1.00  1.00  1.00  1.00  1.00  1.00  1.00  1.00  1.00  1.00  1.00  1.00  1.00  1.00  1.00  1.00  1.00  1.00
1.00  0.94  0.87  0.81  0.87  0.94  1.00  1.00  1.00  1.00  1.00  1.00  1.00  1.00  1.00  1.00  1.00  1.00  1.00  1.00  1.00  1.00  1.00  1.00
1.00  0.94  0.87  0.81  0.87  0.94  1.00  1.00  1.00  1.00  1.00  1.00  1.00  1.00  1.00  1.00  1.00  1.00  1.00  1.00  1.00  1.00  1.00  1.00
1.00  0.94  0.87  0.81  0.87  0.94  1.00  1.00  1.00  1.00  1.00  1.00  1.00  1.00  1.00  1.00  1.00  1.00  1.00  1.00  1.00  1.00  1.00  1.00
1.00  0.94  0.87  0.81  0.87  0.94  1.00  1.00  1.00  1.00  1.00  1.00  1.00  1.00  1.00  1.00  1.00  1.00  1.00  1.00  1.00  1.00  1.00  1.00
1.00  0.94  0.87  0.81  0.87  0.94  1.00  1.00  1.00  1.00  1.00  1.00  1.00  1.00  1.00  1.00  1.00  1.00  1.00  1.00  1.00  1.00  1.00  1.00
1.00  0.94  0.87  0.81  0.87  0.94  1.00  1.00  1.00  1.00  1.00  1.00  1.00  1.00  1.00  1.00  1.00  1.00  1.00  1.00  1.00  1.00  1.00  1.00
1.00  0.94  0.87  0.81  0.87  0.94  1.00  1.00  1.00  1.00  1.00  1.00  1.00  1.00  1.00  1.00  1.00  1.00  1.00  1.00  1.00  1.00  1.00  1.00
1.00  0.94  0.87  0.81  0.87  0.94  1.00  1.00  1.00  1.00  1.00  1.00  1.00  1.00  1.00  1.00  1.00  1.00  1.00  1.00  1.00  1.00  1.00  1.00
1.00  0.94  0.87  0.81  0.87  0.94  1.00  1.00  1.00  1.00  1.00  1.00  1.00  1.00  1.00  1.00  1.00  1.00  1.00  1.00  1.00  1.00  1.00  1.00
1.00  0.94  0.87  0.81  0.87  0.94  1.00  1.00  1.00  1.00  1.00  1.00  1.00  1.00  1.00  1.00  1.00  1.00  1.00  1.00  1.00  1.00  1.00  1.00
1.00  0.94  0.87  0.81  0.87  0.94  1.00  1.00  1.00  1.00  1.00  1.00  1.00  1.00  1.00  1.00  1.00  1.00  1.00  1.00  1.00  1.00  1.00  1.00
1.00  0.94  0.87  0.81  0.87  0.94  1.00  1.00  1.00  1.00  1.00  1.00  1.00  1.00  1.00  1.00  1.00  1.00  1.00  1.00  1.00  1.00  1.00  1.00
1.00  0.94  0.87  0.81  0.87  0.94  1.00  1.00  1.00  1.00  1.00  1.00  1.00  1.00  1.00  1.00  1.00  1.00  1.00  1.00  1.00  1.00  1.00  1.00
1.00  0.94  0.87  0.81  0.87  0.94  1.00  1.00  1.00  1.00  1.00  1.00  1.00  1.00  1.00  1.00  1.00  1.00  1.00  1.00  1.00  1.00  1.00  1.00
1.00  0.94  0.87  0.81  0.87  0.94  1.00  1.00  1.00  1.00  1.00  1.00  1.00  1.00  1.00  1.00  1.00  1.00  1.00  1.00  1.00  1.00  1.00  1.00
1.00  0.94  0.87  0.81  0.87  0.94  1.00  1.00  1.00  1.00  1.00  1.00  1.00  1.00  1.00  1.00  1.00  1.00  1.00  1.00  1.00  1.00  1.00  1.00
1.00  0.94  0.87  0.81  0.87  0.94  1.00  1.00  1.00  1.00  1.00  1.00  1.00  1.00  1.00  1.00  1.00  1.00  1.00  1.00  1.00  1.00  1.00  1.00
1.00  0.94  0.87  0.81  0.87  0.94  1.00  1.00  1.00  1.00  1.00  1.00  1.00  1.00  1.00  1.00  1.00  1.00  1.00  1.00  1.00  1.00  1.00  1.00
1.00  0.94  0.87  0.81  0.87  0.94  1.00  1.00  1.00  1.00  1.00  1.00  1.00  1.00  1.00  1.00  1.00  1.00  1.00  1.00  1.00  1.00  1.00  1.00
1.00  0.94  0.87  0.81  0.87  0.94  1.00  1.00  1.00  1.00  1.00  1.00  1.00  1.00  1.00  1.00  1.00  1.00  1.00  1.00  1.00  1.00  1.00  1.00
1.00  0.94  0.87  0.81  0.87  0.94  1.00  1.00  1.00  1.00  1.00  1.00  1.00  1.00  1.00  1.00  1.00  1.00  1.00  1.00  1.00  1.00  1.00  1.00
1.00  0.94  0.87  0.81  0.87  0.94  1.00  1.00  1.00  1.00  1.00  1.00  1.00  1.00  1.00  1.00  1.00  1.00  1.00  1.00  1.00  1.00  1.00  1.00
$ ilon ilat of the cell. lon: 8.37855741, 37.77978777
324   1
$ sizes of the cell in km
    74.227       76.579       80.080       84.583       87.921       89.347       89.063       87.072       84.245       80.107       76.023       74.229       74.227       76.579       80.080       84.583       87.921       89.347       89.063       87.072       84.245       80.107       76.023       74.229
$ mean alpha: 0.796204766609
$ mean beta: 0.855640155826
$alpha by ik, ith
0.55  0.41  0.26  0.12  0.41  0.71  1.00  1.00  1.00  1.00  1.00  1.00  1.00  1.00  1.00  1.00  1.00  1.00  1.00  0.90  0.80  0.70  0.65  0.60
0.55  0.41  0.26  0.12  0.41  0.71  1.00  1.00  1.00  1.00  1.00  1.00  1.00  1.00  1.00  1.00  1.00  1.00  1.00  0.90  0.80  0.70  0.65  0.60
0.55  0.41  0.26  0.12  0.41  0.71  1.00  1.00  1.00  1.00  1.00  1.00  1.00  1.00  1.00  1.00  1.00  1.00  1.00  0.90  0.80  0.70  0.65  0.60
0.55  0.41  0.26  0.12  0.41  0.71  1.00  1.00  1.00  1.00  1.00  1.00  1.00  1.00  1.00  1.00  1.00  1.00  1.00  0.90  0.80  0.70  0.65  0.60
0.55  0.41  0.26  0.12  0.41  0.71  1.00  1.00  1.00  1.00  1.00  1.00  1.00  1.00  1.00  1.00  1.00  1.00  1.00  0.90  0.80  0.70  0.65  0.60
0.55  0.41  0.26  0.12  0.41  0.71  1.00  1.00  1.00  1.00  1.00  1.00  1.00  1.00  1.00  1.00  1.00  1.00  1.00  0.90  0.80  0.70  0.65  0.60
0.55  0.41  0.26  0.12  0.41  0.71  1.00  1.00  1.00  1.00  1.00  1.00  1.00  1.00  1.00  1.00  1.00  1.00  1.00  0.90  0.80  0.70  0.65  0.60
0.55  0.41  0.26  0.12  0.41  0.71  1.00  1.00  1.00  1.00  1.00  1.00  1.00  1.00  1.00  1.00  1.00  1.00  1.00  0.90  0.80  0.70  0.65  0.60
0.55  0.41  0.26  0.12  0.41  0.71  1.00  1.00  1.00  1.00  1.00  1.00  1.00  1.00  1.00  1.00  1.00  1.00  1.00  0.90  0.80  0.70  0.65  0.60
0.55  0.41  0.26  0.12  0.41  0.71  1.00  1.00  1.00  1.00  1.00  1.00  1.00  1.00  1.00  1.00  1.00  1.00  1.00  0.90  0.80  0.70  0.65  0.60
0.55  0.41  0.26  0.12  0.41  0.71  1.00  1.00  1.00  1.00  1.00  1.00  1.00  1.00  1.00  1.00  1.00  1.00  1.00  0.90  0.80  0.70  0.65  0.60
0.55  0.41  0.26  0.12  0.41  0.71  1.00  1.00  1.00  1.00  1.00  1.00  1.00  1.00  1.00  1.00  1.00  1.00  1.00  0.90  0.80  0.70  0.65  0.60
0.55  0.41  0.26  0.12  0.41  0.71  1.00  1.00  1.00  1.00  1.00  1.00  1.00  1.00  1.00  1.00  1.00  1.00  1.00  0.90  0.80  0.70  0.65  0.60
0.55  0.41  0.26  0.12  0.41  0.71  1.00  1.00  1.00  1.00  1.00  1.00  1.00  1.00  1.00  1.00  1.00  1.00  1.00  0.90  0.80  0.70  0.65  0.60
0.55  0.41  0.26  0.12  0.41  0.71  1.00  1.00  1.00  1.00  1.00  1.00  1.00  1.00  1.00  1.00  1.00  1.00  1.00  0.90  0.80  0.70  0.65  0.60
0.55  0.41  0.26  0.12  0.41  0.71  1.00  1.00  1.00  1.00  1.00  1.00  1.00  1.00  1.00  1.00  1.00  1.00  1.00  0.90  0.80  0.70  0.65  0.60
0.55  0.41  0.26  0.12  0.41  0.71  1.00  1.00  1.00  1.00  1.00  1.00  1.00  1.00  1.00  1.00  1.00  1.00  1.00  0.90  0.80  0.70  0.65  0.60
0.55  0.41  0.26  0.12  0.41  0.71  1.00  1.00  1.00  1.00  1.00  1.00  1.00  1.00  1.00  1.00  1.00  1.00  1.00  0.90  0.80  0.70  0.65  0.60
0.55  0.41  0.26  0.12  0.41  0.71  1.00  1.00  1.00  1.00  1.00  1.00  1.00  1.00  1.00  1.00  1.00  1.00  1.00  0.90  0.80  0.70  0.65  0.60
0.55  0.41  0.26  0.12  0.41  0.71  1.00  1.00  1.00  1.00  1.00  1.00  1.00  1.00  1.00  1.00  1.00  1.00  1.00  0.90  0.80  0.70  0.65  0.60
0.55  0.41  0.26  0.12  0.41  0.71  1.00  1.00  1.00  1.00  1.00  1.00  1.00  1.00  1.00  1.00  1.00  1.00  1.00  0.90  0.80  0.70  0.65  0.60
0.55  0.41  0.26  0.12  0.41  0.71  1.00  1.00  1.00  1.00  1.00  1.00  1.00  1.00  1.00  1.00  1.00  1.00  1.00  0.90  0.80  0.70  0.65  0.60
0.55  0.41  0.26  0.12  0.41  0.71  1.00  1.00  1.00  1.00  1.00  1.00  1.00  1.00  1.00  1.00  1.00  1.00  1.00  0.90  0.80  0.70  0.65  0.60
0.55  0.41  0.26  0.12  0.41  0.71  1.00  1.00  1.00  1.00  1.00  1.00  1.00  1.00  1.00  1.00  1.00  1.00  1.00  0.90  0.80  0.70  0.65  0.60
0.55  0.41  0.26  0.12  0.41  0.71  1.00  1.00  1.00  1.00  1.00  1.00  1.00  1.00  1.00  1.00  1.00  1.00  1.00  0.90  0.80  0.70  0.65  0.60
$beta by ik, ith
0.67  0.56  0.44  0.32  0.55  0.77  1.00  1.00  1.00  1.00  1.00  1.00  1.00  1.00  1.00  1.00  1.00  1.00  1.00  0.95  0.90  0.85  0.79  0.73
0.67  0.56  0.44  0.32  0.55  0.77  1.00  1.00  1.00  1.00  1.00  1.00  1.00  1.00  1.00  1.00  1.00  1.00  1.00  0.95  0.90  0.85  0.79  0.73
0.67  0.56  0.44  0.32  0.55  0.77  1.00  1.00  1.00  1.00  1.00  1.00  1.00  1.00  1.00  1.00  1.00  1.00  1.00  0.95  0.90  0.85  0.79  0.73
0.67  0.56  0.44  0.32  0.55  0.77  1.00  1.00  1.00  1.00  1.00  1.00  1.00  1.00  1.00  1.00  1.00  1.00  1.00  0.95  0.90  0.85  0.79  0.73
0.67  0.56  0.44  0.32  0.55  0.77  1.00  1.00  1.00  1.00  1.00  1.00  1.00  1.00  1.00  1.00  1.00  1.00  1.00  0.95  0.90  0.85  0.79  0.73
0.67  0.56  0.44  0.32  0.55  0.77  1.00  1.00  1.00  1.00  1.00  1.00  1.00  1.00  1.00  1.00  1.00  1.00  1.00  0.95  0.90  0.85  0.79  0.73
0.67  0.56  0.44  0.32  0.55  0.77  1.00  1.00  1.00  1.00  1.00  1.00  1.00  1.00  1.00  1.00  1.00  1.00  1.00  0.95  0.90  0.85  0.79  0.73
0.67  0.56  0.44  0.32  0.55  0.77  1.00  1.00  1.00  1.00  1.00  1.00  1.00  1.00  1.00  1.00  1.00  1.00  1.00  0.95  0.90  0.85  0.79  0.73
0.67  0.56  0.44  0.32  0.55  0.77  1.00  1.00  1.00  1.00  1.00  1.00  1.00  1.00  1.00  1.00  1.00  1.00  1.00  0.95  0.90  0.85  0.79  0.73
0.67  0.56  0.44  0.32  0.55  0.77  1.00  1.00  1.00  1.00  1.00  1.00  1.00  1.00  1.00  1.00  1.00  1.00  1.00  0.95  0.90  0.85  0.79  0.73
0.67  0.56  0.44  0.32  0.55  0.77  1.00  1.00  1.00  1.00  1.00  1.00  1.00  1.00  1.00  1.00  1.00  1.00  1.00  0.95  0.90  0.85  0.79  0.73
0.67  0.56  0.44  0.32  0.55  0.77  1.00  1.00  1.00  1.00  1.00  1.00  1.00  1.00  1.00  1.00  1.00  1.00  1.00  0.95  0.90  0.85  0.79  0.73
0.67  0.56  0.44  0.32  0.55  0.77  1.00  1.00  1.00  1.00  1.00  1.00  1.00  1.00  1.00  1.00  1.00  1.00  1.00  0.95  0.90  0.85  0.79  0.73
0.67  0.56  0.44  0.32  0.55  0.77  1.00  1.00  1.00  1.00  1.00  1.00  1.00  1.00  1.00  1.00  1.00  1.00  1.00  0.95  0.90  0.85  0.79  0.73
0.67  0.56  0.44  0.32  0.55  0.77  1.00  1.00  1.00  1.00  1.00  1.00  1.00  1.00  1.00  1.00  1.00  1.00  1.00  0.95  0.90  0.85  0.79  0.73
0.67  0.56  0.44  0.32  0.55  0.77  1.00  1.00  1.00  1.00  1.00  1.00  1.00  1.00  1.00  1.00  1.00  1.00  1.00  0.95  0.90  0.85  0.79  0.73
0.67  0.56  0.44  0.32  0.55  0.77  1.00  1.00  1.00  1.00  1.00  1.00  1.00  1.00  1.00  1.00  1.00  1.00  1.00  0.95  0.90  0.85  0.79  0.73
0.67  0.56  0.44  0.32  0.55  0.77  1.00  1.00  1.00  1.00  1.00  1.00  1.00  1.00  1.00  1.00  1.00  1.00  1.00  0.95  0.90  0.85  0.79  0.73
0.67  0.56  0.44  0.32  0.55  0.77  1.00  1.00  1.00  1.00  1.00  1.00  1.00  1.00  1.00  1.00  1.00  1.00  1.00  0.95  0.90  0.85  0.79  0.73
0.67  0.56  0.44  0.32  0.55  0.77  1.00  1.00  1.00  1.00  1.00  1.00  1.00  1.00  1.00  1.00  1.00  1.00  1.00  0.95  0.90  0.85  0.79  0.73
0.67  0.56  0.44  0.32  0.55  0.77  1.00  1.00  1.00  1.00  1.00  1.00  1.00  1.00  1.00  1.00  1.00  1.00  1.00  0.95  0.90  0.85  0.79  0.73
0.67  0.56  0.44  0.32  0.55  0.77  1.00  1.00  1.00  1.00  1.00  1.00  1.00  1.00  1.00  1.00  1.00  1.00  1.00  0.95  0.90  0.85  0.79  0.73
0.67  0.56  0.44  0.32  0.55  0.77  1.00  1.00  1.00  1.00  1.00  1.00  1.00  1.00  1.00  1.00  1.00  1.00  1.00  0.95  0.90  0.85  0.79  0.73
0.67  0.56  0.44  0.32  0.55  0.77  1.00  1.00  1.00  1.00  1.00  1.00  1.00  1.00  1.00  1.00  1.00  1.00  1.00  0.95  0.90  0.85  0.79  0.73
0.67  0.56  0.44  0.32  0.55  0.77  1.00  1.00  1.00  1.00  1.00  1.00  1.00  1.00  1.00  1.00  1.00  1.00  1.00  0.95  0.90  0.85  0.79  0.73
$ ilon ilat of the cell. lon: 7.27854994, 37.38853909
325   1
$ sizes of the cell in km
    61.640       61.674       59.935       57.505       56.247       55.240       53.435       53.493       54.844       55.861       58.228       59.850       61.640       61.674       59.935       57.505       56.247       55.240       53.435       53.493       54.844       55.861       58.228       59.850
$ mean alpha: 0.834695949552
$ mean beta: 0.846371072965
$alpha by ik, ith
1.00  1.00  1.00  1.00  1.00  1.00  1.00  0.90  0.81  0.71  0.64  0.57  0.50  0.49  0.48  0.47  0.65  0.82  1.00  1.00  1.00  1.00  1.00  1.00
1.00  1.00  1.00  1.00  1.00  1.00  1.00  0.90  0.81  0.71  0.64  0.57  0.50  0.49  0.48  0.47  0.65  0.82  1.00  1.00  1.00  1.00  1.00  1.00
1.00  1.00  1.00  1.00  1.00  1.00  1.00  0.90  0.81  0.71  0.64  0.57  0.50  0.49  0.48  0.47  0.65  0.82  1.00  1.00  1.00  1.00  1.00  1.00
1.00  1.00  1.00  1.00  1.00  1.00  1.00  0.90  0.81  0.71  0.64  0.57  0.50  0.49  0.48  0.47  0.65  0.82  1.00  1.00  1.00  1.00  1.00  1.00
1.00  1.00  1.00  1.00  1.00  1.00  1.00  0.90  0.81  0.71  0.64  0.57  0.50  0.49  0.48  0.47  0.65  0.82  1.00  1.00  1.00  1.00  1.00  1.00
1.00  1.00  1.00  1.00  1.00  1.00  1.00  0.90  0.81  0.71  0.64  0.57  0.50  0.49  0.48  0.47  0.65  0.82  1.00  1.00  1.00  1.00  1.00  1.00
1.00  1.00  1.00  1.00  1.00  1.00  1.00  0.90  0.81  0.71  0.64  0.57  0.50  0.49  0.48  0.47  0.65  0.82  1.00  1.00  1.00  1.00  1.00  1.00
1.00  1.00  1.00  1.00  1.00  1.00  1.00  0.90  0.81  0.71  0.64  0.57  0.50  0.49  0.48  0.47  0.65  0.82  1.00  1.00  1.00  1.00  1.00  1.00
1.00  1.00  1.00  1.00  1.00  1.00  1.00  0.90  0.81  0.71  0.64  0.57  0.50  0.49  0.48  0.47  0.65  0.82  1.00  1.00  1.00  1.00  1.00  1.00
1.00  1.00  1.00  1.00  1.00  1.00  1.00  0.90  0.81  0.71  0.64  0.57  0.50  0.49  0.48  0.47  0.65  0.82  1.00  1.00  1.00  1.00  1.00  1.00
1.00  1.00  1.00  1.00  1.00  1.00  1.00  0.90  0.81  0.71  0.64  0.57  0.50  0.49  0.48  0.47  0.65  0.82  1.00  1.00  1.00  1.00  1.00  1.00
1.00  1.00  1.00  1.00  1.00  1.00  1.00  0.90  0.81  0.71  0.64  0.57  0.50  0.49  0.48  0.47  0.65  0.82  1.00  1.00  1.00  1.00  1.00  1.00
1.00  1.00  1.00  1.00  1.00  1.00  1.00  0.90  0.81  0.71  0.64  0.57  0.50  0.49  0.48  0.47  0.65  0.82  1.00  1.00  1.00  1.00  1.00  1.00
1.00  1.00  1.00  1.00  1.00  1.00  1.00  0.90  0.81  0.71  0.64  0.57  0.50  0.49  0.48  0.47  0.65  0.82  1.00  1.00  1.00  1.00  1.00  1.00
1.00  1.00  1.00  1.00  1.00  1.00  1.00  0.90  0.81  0.71  0.64  0.57  0.50  0.49  0.48  0.47  0.65  0.82  1.00  1.00  1.00  1.00  1.00  1.00
1.00  1.00  1.00  1.00  1.00  1.00  1.00  0.90  0.81  0.71  0.64  0.57  0.50  0.49  0.48  0.47  0.65  0.82  1.00  1.00  1.00  1.00  1.00  1.00
1.00  1.00  1.00  1.00  1.00  1.00  1.00  0.90  0.81  0.71  0.64  0.57  0.50  0.49  0.48  0.47  0.65  0.82  1.00  1.00  1.00  1.00  1.00  1.00
1.00  1.00  1.00  1.00  1.00  1.00  1.00  0.90  0.81  0.71  0.64  0.57  0.50  0.49  0.48  0.47  0.65  0.82  1.00  1.00  1.00  1.00  1.00  1.00
1.00  1.00  1.00  1.00  1.00  1.00  1.00  0.90  0.81  0.71  0.64  0.57  0.50  0.49  0.48  0.47  0.65  0.82  1.00  1.00  1.00  1.00  1.00  1.00
1.00  1.00  1.00  1.00  1.00  1.00  1.00  0.90  0.81  0.71  0.64  0.57  0.50  0.49  0.48  0.47  0.65  0.82  1.00  1.00  1.00  1.00  1.00  1.00
1.00  1.00  1.00  1.00  1.00  1.00  1.00  0.90  0.81  0.71  0.64  0.57  0.50  0.49  0.48  0.47  0.65  0.82  1.00  1.00  1.00  1.00  1.00  1.00
1.00  1.00  1.00  1.00  1.00  1.00  1.00  0.90  0.81  0.71  0.64  0.57  0.50  0.49  0.48  0.47  0.65  0.82  1.00  1.00  1.00  1.00  1.00  1.00
1.00  1.00  1.00  1.00  1.00  1.00  1.00  0.90  0.81  0.71  0.64  0.57  0.50  0.49  0.48  0.47  0.65  0.82  1.00  1.00  1.00  1.00  1.00  1.00
1.00  1.00  1.00  1.00  1.00  1.00  1.00  0.90  0.81  0.71  0.64  0.57  0.50  0.49  0.48  0.47  0.65  0.82  1.00  1.00  1.00  1.00  1.00  1.00
1.00  1.00  1.00  1.00  1.00  1.00  1.00  0.90  0.81  0.71  0.64  0.57  0.50  0.49  0.48  0.47  0.65  0.82  1.00  1.00  1.00  1.00  1.00  1.00
$beta by ik, ith
1.00  1.00  1.00  1.00  1.00  1.00  1.00  0.90  0.81  0.71  0.67  0.63  0.59  0.55  0.51  0.47  0.65  0.82  1.00  1.00  1.00  1.00  1.00  1.00
1.00  1.00  1.00  1.00  1.00  1.00  1.00  0.90  0.81  0.71  0.67  0.63  0.59  0.55  0.51  0.47  0.65  0.82  1.00  1.00  1.00  1.00  1.00  1.00
1.00  1.00  1.00  1.00  1.00  1.00  1.00  0.90  0.81  0.71  0.67  0.63  0.59  0.55  0.51  0.47  0.65  0.82  1.00  1.00  1.00  1.00  1.00  1.00
1.00  1.00  1.00  1.00  1.00  1.00  1.00  0.90  0.81  0.71  0.67  0.63  0.59  0.55  0.51  0.47  0.65  0.82  1.00  1.00  1.00  1.00  1.00  1.00
1.00  1.00  1.00  1.00  1.00  1.00  1.00  0.90  0.81  0.71  0.67  0.63  0.59  0.55  0.51  0.47  0.65  0.82  1.00  1.00  1.00  1.00  1.00  1.00
1.00  1.00  1.00  1.00  1.00  1.00  1.00  0.90  0.81  0.71  0.67  0.63  0.59  0.55  0.51  0.47  0.65  0.82  1.00  1.00  1.00  1.00  1.00  1.00
1.00  1.00  1.00  1.00  1.00  1.00  1.00  0.90  0.81  0.71  0.67  0.63  0.59  0.55  0.51  0.47  0.65  0.82  1.00  1.00  1.00  1.00  1.00  1.00
1.00  1.00  1.00  1.00  1.00  1.00  1.00  0.90  0.81  0.71  0.67  0.63  0.59  0.55  0.51  0.47  0.65  0.82  1.00  1.00  1.00  1.00  1.00  1.00
1.00  1.00  1.00  1.00  1.00  1.00  1.00  0.90  0.81  0.71  0.67  0.63  0.59  0.55  0.51  0.47  0.65  0.82  1.00  1.00  1.00  1.00  1.00  1.00
1.00  1.00  1.00  1.00  1.00  1.00  1.00  0.90  0.81  0.71  0.67  0.63  0.59  0.55  0.51  0.47  0.65  0.82  1.00  1.00  1.00  1.00  1.00  1.00
1.00  1.00  1.00  1.00  1.00  1.00  1.00  0.90  0.81  0.71  0.67  0.63  0.59  0.55  0.51  0.47  0.65  0.82  1.00  1.00  1.00  1.00  1.00  1.00
1.00  1.00  1.00  1.00  1.00  1.00  1.00  0.90  0.81  0.71  0.67  0.63  0.59  0.55  0.51  0.47  0.65  0.82  1.00  1.00  1.00  1.00  1.00  1.00
1.00  1.00  1.00  1.00  1.00  1.00  1.00  0.90  0.81  0.71  0.67  0.63  0.59  0.55  0.51  0.47  0.65  0.82  1.00  1.00  1.00  1.00  1.00  1.00
1.00  1.00  1.00  1.00  1.00  1.00  1.00  0.90  0.81  0.71  0.67  0.63  0.59  0.55  0.51  0.47  0.65  0.82  1.00  1.00  1.00  1.00  1.00  1.00
1.00  1.00  1.00  1.00  1.00  1.00  1.00  0.90  0.81  0.71  0.67  0.63  0.59  0.55  0.51  0.47  0.65  0.82  1.00  1.00  1.00  1.00  1.00  1.00
1.00  1.00  1.00  1.00  1.00  1.00  1.00  0.90  0.81  0.71  0.67  0.63  0.59  0.55  0.51  0.47  0.65  0.82  1.00  1.00  1.00  1.00  1.00  1.00
1.00  1.00  1.00  1.00  1.00  1.00  1.00  0.90  0.81  0.71  0.67  0.63  0.59  0.55  0.51  0.47  0.65  0.82  1.00  1.00  1.00  1.00  1.00  1.00
1.00  1.00  1.00  1.00  1.00  1.00  1.00  0.90  0.81  0.71  0.67  0.63  0.59  0.55  0.51  0.47  0.65  0.82  1.00  1.00  1.00  1.00  1.00  1.00
1.00  1.00  1.00  1.00  1.00  1.00  1.00  0.90  0.81  0.71  0.67  0.63  0.59  0.55  0.51  0.47  0.65  0.82  1.00  1.00  1.00  1.00  1.00  1.00
1.00  1.00  1.00  1.00  1.00  1.00  1.00  0.90  0.81  0.71  0.67  0.63  0.59  0.55  0.51  0.47  0.65  0.82  1.00  1.00  1.00  1.00  1.00  1.00
1.00  1.00  1.00  1.00  1.00  1.00  1.00  0.90  0.81  0.71  0.67  0.63  0.59  0.55  0.51  0.47  0.65  0.82  1.00  1.00  1.00  1.00  1.00  1.00
1.00  1.00  1.00  1.00  1.00  1.00  1.00  0.90  0.81  0.71  0.67  0.63  0.59  0.55  0.51  0.47  0.65  0.82  1.00  1.00  1.00  1.00  1.00  1.00
1.00  1.00  1.00  1.00  1.00  1.00  1.00  0.90  0.81  0.71  0.67  0.63  0.59  0.55  0.51  0.47  0.65  0.82  1.00  1.00  1.00  1.00  1.00  1.00
1.00  1.00  1.00  1.00  1.00  1.00  1.00  0.90  0.81  0.71  0.67  0.63  0.59  0.55  0.51  0.47  0.65  0.82  1.00  1.00  1.00  1.00  1.00  1.00
1.00  1.00  1.00  1.00  1.00  1.00  1.00  0.90  0.81  0.71  0.67  0.63  0.59  0.55  0.51  0.47  0.65  0.82  1.00  1.00  1.00  1.00  1.00  1.00
