$WAVEWATCH III LOCAL OBSTRUCTIONS
16
$ ilon ilat of the cell. lon: 7.80206835, 30.39962121
16   1
$ sizes of the cell in km
    67.007       72.209       74.460       77.356       78.461       75.979       73.387       69.973       67.404       64.107       60.459       62.636       67.007       72.209       74.460       77.356       78.461       75.979       73.387       69.973       67.404       64.107       60.459       62.636
$ mean alpha: 0.479027820292
$ mean beta: 0.642619411623
$alpha by ik, ith
0.53  0.44  0.34  0.25  0.45  0.66  0.86  0.67  0.47  0.28  0.36  0.44  0.53  0.44  0.34  0.25  0.45  0.66  0.86  0.67  0.47  0.28  0.36  0.44
0.53  0.44  0.34  0.25  0.45  0.66  0.86  0.67  0.47  0.28  0.36  0.44  0.53  0.44  0.34  0.25  0.45  0.66  0.86  0.67  0.47  0.28  0.36  0.44
0.53  0.44  0.34  0.25  0.45  0.66  0.86  0.67  0.47  0.28  0.36  0.44  0.53  0.44  0.34  0.25  0.45  0.66  0.86  0.67  0.47  0.28  0.36  0.44
0.53  0.44  0.34  0.25  0.45  0.66  0.86  0.67  0.47  0.28  0.36  0.44  0.53  0.44  0.34  0.25  0.45  0.66  0.86  0.67  0.47  0.28  0.36  0.44
0.53  0.44  0.34  0.25  0.45  0.66  0.86  0.67  0.47  0.28  0.36  0.44  0.53  0.44  0.34  0.25  0.45  0.66  0.86  0.67  0.47  0.28  0.36  0.44
0.53  0.44  0.34  0.25  0.45  0.66  0.86  0.67  0.47  0.28  0.36  0.44  0.53  0.44  0.34  0.25  0.45  0.66  0.86  0.67  0.47  0.28  0.36  0.44
0.53  0.44  0.34  0.25  0.45  0.66  0.86  0.67  0.47  0.28  0.36  0.44  0.53  0.44  0.34  0.25  0.45  0.66  0.86  0.67  0.47  0.28  0.36  0.44
0.53  0.44  0.34  0.25  0.45  0.66  0.86  0.67  0.47  0.28  0.36  0.44  0.53  0.44  0.34  0.25  0.45  0.66  0.86  0.67  0.47  0.28  0.36  0.44
0.53  0.44  0.34  0.25  0.45  0.66  0.86  0.67  0.47  0.28  0.36  0.44  0.53  0.44  0.34  0.25  0.45  0.66  0.86  0.67  0.47  0.28  0.36  0.44
0.53  0.44  0.34  0.25  0.45  0.66  0.86  0.67  0.47  0.28  0.36  0.44  0.53  0.44  0.34  0.25  0.45  0.66  0.86  0.67  0.47  0.28  0.36  0.44
0.53  0.44  0.34  0.25  0.45  0.66  0.86  0.67  0.47  0.28  0.36  0.44  0.53  0.44  0.34  0.25  0.45  0.66  0.86  0.67  0.47  0.28  0.36  0.44
0.53  0.44  0.34  0.25  0.45  0.66  0.86  0.67  0.47  0.28  0.36  0.44  0.53  0.44  0.34  0.25  0.45  0.66  0.86  0.67  0.47  0.28  0.36  0.44
0.53  0.44  0.34  0.25  0.45  0.66  0.86  0.67  0.47  0.28  0.36  0.44  0.53  0.44  0.34  0.25  0.45  0.66  0.86  0.67  0.47  0.28  0.36  0.44
0.53  0.44  0.34  0.25  0.45  0.66  0.86  0.67  0.47  0.28  0.36  0.44  0.53  0.44  0.34  0.25  0.45  0.66  0.86  0.67  0.47  0.28  0.36  0.44
0.53  0.44  0.34  0.25  0.45  0.66  0.86  0.67  0.47  0.28  0.36  0.44  0.53  0.44  0.34  0.25  0.45  0.66  0.86  0.67  0.47  0.28  0.36  0.44
0.53  0.44  0.34  0.25  0.45  0.66  0.86  0.67  0.47  0.28  0.36  0.44  0.53  0.44  0.34  0.25  0.45  0.66  0.86  0.67  0.47  0.28  0.36  0.44
0.53  0.44  0.34  0.25  0.45  0.66  0.86  0.67  0.47  0.28  0.36  0.44  0.53  0.44  0.34  0.25  0.45  0.66  0.86  0.67  0.47  0.28  0.36  0.44
0.53  0.44  0.34  0.25  0.45  0.66  0.86  0.67  0.47  0.28  0.36  0.44  0.53  0.44  0.34  0.25  0.45  0.66  0.86  0.67  0.47  0.28  0.36  0.44
0.53  0.44  0.34  0.25  0.45  0.66  0.86  0.67  0.47  0.28  0.36  0.44  0.53  0.44  0.34  0.25  0.45  0.66  0.86  0.67  0.47  0.28  0.36  0.44
0.53  0.44  0.34  0.25  0.45  0.66  0.86  0.67  0.47  0.28  0.36  0.44  0.53  0.44  0.34  0.25  0.45  0.66  0.86  0.67  0.47  0.28  0.36  0.44
0.53  0.44  0.34  0.25  0.45  0.66  0.86  0.67  0.47  0.28  0.36  0.44  0.53  0.44  0.34  0.25  0.45  0.66  0.86  0.67  0.47  0.28  0.36  0.44
0.53  0.44  0.34  0.25  0.45  0.66  0.86  0.67  0.47  0.28  0.36  0.44  0.53  0.44  0.34  0.25  0.45  0.66  0.86  0.67  0.47  0.28  0.36  0.44
0.53  0.44  0.34  0.25  0.45  0.66  0.86  0.67  0.47  0.28  0.36  0.44  0.53  0.44  0.34  0.25  0.45  0.66  0.86  0.67  0.47  0.28  0.36  0.44
0.53  0.44  0.34  0.25  0.45  0.66  0.86  0.67  0.47  0.28  0.36  0.44  0.53  0.44  0.34  0.25  0.45  0.66  0.86  0.67  0.47  0.28  0.36  0.44
0.53  0.44  0.34  0.25  0.45  0.66  0.86  0.67  0.47  0.28  0.36  0.44  0.53  0.44  0.34  0.25  0.45  0.66  0.86  0.67  0.47  0.28  0.36  0.44
$beta by ik, ith
0.73  0.68  0.62  0.57  0.66  0.75  0.84  0.73  0.63  0.52  0.55  0.58  0.61  0.57  0.52  0.48  0.60  0.72  0.84  0.74  0.64  0.54  0.61  0.67
0.73  0.68  0.62  0.57  0.66  0.75  0.84  0.73  0.63  0.52  0.55  0.58  0.61  0.57  0.52  0.48  0.60  0.72  0.84  0.74  0.64  0.54  0.61  0.67
0.73  0.68  0.62  0.57  0.66  0.75  0.84  0.73  0.63  0.52  0.55  0.58  0.61  0.57  0.52  0.48  0.60  0.72  0.84  0.74  0.64  0.54  0.61  0.67
0.73  0.68  0.62  0.57  0.66  0.75  0.84  0.73  0.63  0.52  0.55  0.58  0.61  0.57  0.52  0.48  0.60  0.72  0.84  0.74  0.64  0.54  0.61  0.67
0.73  0.68  0.62  0.57  0.66  0.75  0.84  0.73  0.63  0.52  0.55  0.58  0.61  0.57  0.52  0.48  0.60  0.72  0.84  0.74  0.64  0.54  0.61  0.67
0.73  0.68  0.62  0.57  0.66  0.75  0.84  0.73  0.63  0.52  0.55  0.58  0.61  0.57  0.52  0.48  0.60  0.72  0.84  0.74  0.64  0.54  0.61  0.67
0.73  0.68  0.62  0.57  0.66  0.75  0.84  0.73  0.63  0.52  0.55  0.58  0.61  0.57  0.52  0.48  0.60  0.72  0.84  0.74  0.64  0.54  0.61  0.67
0.73  0.68  0.62  0.57  0.66  0.75  0.84  0.73  0.63  0.52  0.55  0.58  0.61  0.57  0.52  0.48  0.60  0.72  0.84  0.74  0.64  0.54  0.61  0.67
0.73  0.68  0.62  0.57  0.66  0.75  0.84  0.73  0.63  0.52  0.55  0.58  0.61  0.57  0.52  0.48  0.60  0.72  0.84  0.74  0.64  0.54  0.61  0.67
0.73  0.68  0.62  0.57  0.66  0.75  0.84  0.73  0.63  0.52  0.55  0.58  0.61  0.57  0.52  0.48  0.60  0.72  0.84  0.74  0.64  0.54  0.61  0.67
0.73  0.68  0.62  0.57  0.66  0.75  0.84  0.73  0.63  0.52  0.55  0.58  0.61  0.57  0.52  0.48  0.60  0.72  0.84  0.74  0.64  0.54  0.61  0.67
0.73  0.68  0.62  0.57  0.66  0.75  0.84  0.73  0.63  0.52  0.55  0.58  0.61  0.57  0.52  0.48  0.60  0.72  0.84  0.74  0.64  0.54  0.61  0.67
0.73  0.68  0.62  0.57  0.66  0.75  0.84  0.73  0.63  0.52  0.55  0.58  0.61  0.57  0.52  0.48  0.60  0.72  0.84  0.74  0.64  0.54  0.61  0.67
0.73  0.68  0.62  0.57  0.66  0.75  0.84  0.73  0.63  0.52  0.55  0.58  0.61  0.57  0.52  0.48  0.60  0.72  0.84  0.74  0.64  0.54  0.61  0.67
0.73  0.68  0.62  0.57  0.66  0.75  0.84  0.73  0.63  0.52  0.55  0.58  0.61  0.57  0.52  0.48  0.60  0.72  0.84  0.74  0.64  0.54  0.61  0.67
0.73  0.68  0.62  0.57  0.66  0.75  0.84  0.73  0.63  0.52  0.55  0.58  0.61  0.57  0.52  0.48  0.60  0.72  0.84  0.74  0.64  0.54  0.61  0.67
0.73  0.68  0.62  0.57  0.66  0.75  0.84  0.73  0.63  0.52  0.55  0.58  0.61  0.57  0.52  0.48  0.60  0.72  0.84  0.74  0.64  0.54  0.61  0.67
0.73  0.68  0.62  0.57  0.66  0.75  0.84  0.73  0.63  0.52  0.55  0.58  0.61  0.57  0.52  0.48  0.60  0.72  0.84  0.74  0.64  0.54  0.61  0.67
0.73  0.68  0.62  0.57  0.66  0.75  0.84  0.73  0.63  0.52  0.55  0.58  0.61  0.57  0.52  0.48  0.60  0.72  0.84  0.74  0.64  0.54  0.61  0.67
0.73  0.68  0.62  0.57  0.66  0.75  0.84  0.73  0.63  0.52  0.55  0.58  0.61  0.57  0.52  0.48  0.60  0.72  0.84  0.74  0.64  0.54  0.61  0.67
0.73  0.68  0.62  0.57  0.66  0.75  0.84  0.73  0.63  0.52  0.55  0.58  0.61  0.57  0.52  0.48  0.60  0.72  0.84  0.74  0.64  0.54  0.61  0.67
0.73  0.68  0.62  0.57  0.66  0.75  0.84  0.73  0.63  0.52  0.55  0.58  0.61  0.57  0.52  0.48  0.60  0.72  0.84  0.74  0.64  0.54  0.61  0.67
0.73  0.68  0.62  0.57  0.66  0.75  0.84  0.73  0.63  0.52  0.55  0.58  0.61  0.57  0.52  0.48  0.60  0.72  0.84  0.74  0.64  0.54  0.61  0.67
0.73  0.68  0.62  0.57  0.66  0.75  0.84  0.73  0.63  0.52  0.55  0.58  0.61  0.57  0.52  0.48  0.60  0.72  0.84  0.74  0.64  0.54  0.61  0.67
0.73  0.68  0.62  0.57  0.66  0.75  0.84  0.73  0.63  0.52  0.55  0.58  0.61  0.57  0.52  0.48  0.60  0.72  0.84  0.74  0.64  0.54  0.61  0.67
$ ilon ilat of the cell. lon: 7.99651012, 32.15393415
46   1
$ sizes of the cell in km
    78.959       77.311       74.565       72.160       70.877       69.176       70.622       71.696       72.034       73.883       77.916       81.152       78.959       77.311       74.565       72.160       70.877       69.176       70.622       71.696       72.034       73.883       77.916       81.152
$ mean alpha: 0.620187212905
$ mean beta: 0.73615733134
$alpha by ik, ith
0.59  0.56  0.54  0.52  0.64  0.76  0.88  0.75  0.62  0.50  0.53  0.56  0.59  0.56  0.54  0.52  0.64  0.76  0.88  0.75  0.62  0.50  0.53  0.56
0.59  0.56  0.54  0.52  0.64  0.76  0.88  0.75  0.62  0.50  0.53  0.56  0.59  0.56  0.54  0.52  0.64  0.76  0.88  0.75  0.62  0.50  0.53  0.56
0.59  0.56  0.54  0.52  0.64  0.76  0.88  0.75  0.62  0.50  0.53  0.56  0.59  0.56  0.54  0.52  0.64  0.76  0.88  0.75  0.62  0.50  0.53  0.56
0.59  0.56  0.54  0.52  0.64  0.76  0.88  0.75  0.62  0.50  0.53  0.56  0.59  0.56  0.54  0.52  0.64  0.76  0.88  0.75  0.62  0.50  0.53  0.56
0.59  0.56  0.54  0.52  0.64  0.76  0.88  0.75  0.62  0.50  0.53  0.56  0.59  0.56  0.54  0.52  0.64  0.76  0.88  0.75  0.62  0.50  0.53  0.56
0.59  0.56  0.54  0.52  0.64  0.76  0.88  0.75  0.62  0.50  0.53  0.56  0.59  0.56  0.54  0.52  0.64  0.76  0.88  0.75  0.62  0.50  0.53  0.56
0.59  0.56  0.54  0.52  0.64  0.76  0.88  0.75  0.62  0.50  0.53  0.56  0.59  0.56  0.54  0.52  0.64  0.76  0.88  0.75  0.62  0.50  0.53  0.56
0.59  0.56  0.54  0.52  0.64  0.76  0.88  0.75  0.62  0.50  0.53  0.56  0.59  0.56  0.54  0.52  0.64  0.76  0.88  0.75  0.62  0.50  0.53  0.56
0.59  0.56  0.54  0.52  0.64  0.76  0.88  0.75  0.62  0.50  0.53  0.56  0.59  0.56  0.54  0.52  0.64  0.76  0.88  0.75  0.62  0.50  0.53  0.56
0.59  0.56  0.54  0.52  0.64  0.76  0.88  0.75  0.62  0.50  0.53  0.56  0.59  0.56  0.54  0.52  0.64  0.76  0.88  0.75  0.62  0.50  0.53  0.56
0.59  0.56  0.54  0.52  0.64  0.76  0.88  0.75  0.62  0.50  0.53  0.56  0.59  0.56  0.54  0.52  0.64  0.76  0.88  0.75  0.62  0.50  0.53  0.56
0.59  0.56  0.54  0.52  0.64  0.76  0.88  0.75  0.62  0.50  0.53  0.56  0.59  0.56  0.54  0.52  0.64  0.76  0.88  0.75  0.62  0.50  0.53  0.56
0.59  0.56  0.54  0.52  0.64  0.76  0.88  0.75  0.62  0.50  0.53  0.56  0.59  0.56  0.54  0.52  0.64  0.76  0.88  0.75  0.62  0.50  0.53  0.56
0.59  0.56  0.54  0.52  0.64  0.76  0.88  0.75  0.62  0.50  0.53  0.56  0.59  0.56  0.54  0.52  0.64  0.76  0.88  0.75  0.62  0.50  0.53  0.56
0.59  0.56  0.54  0.52  0.64  0.76  0.88  0.75  0.62  0.50  0.53  0.56  0.59  0.56  0.54  0.52  0.64  0.76  0.88  0.75  0.62  0.50  0.53  0.56
0.59  0.56  0.54  0.52  0.64  0.76  0.88  0.75  0.62  0.50  0.53  0.56  0.59  0.56  0.54  0.52  0.64  0.76  0.88  0.75  0.62  0.50  0.53  0.56
0.59  0.56  0.54  0.52  0.64  0.76  0.88  0.75  0.62  0.50  0.53  0.56  0.59  0.56  0.54  0.52  0.64  0.76  0.88  0.75  0.62  0.50  0.53  0.56
0.59  0.56  0.54  0.52  0.64  0.76  0.88  0.75  0.62  0.50  0.53  0.56  0.59  0.56  0.54  0.52  0.64  0.76  0.88  0.75  0.62  0.50  0.53  0.56
0.59  0.56  0.54  0.52  0.64  0.76  0.88  0.75  0.62  0.50  0.53  0.56  0.59  0.56  0.54  0.52  0.64  0.76  0.88  0.75  0.62  0.50  0.53  0.56
0.59  0.56  0.54  0.52  0.64  0.76  0.88  0.75  0.62  0.50  0.53  0.56  0.59  0.56  0.54  0.52  0.64  0.76  0.88  0.75  0.62  0.50  0.53  0.56
0.59  0.56  0.54  0.52  0.64  0.76  0.88  0.75  0.62  0.50  0.53  0.56  0.59  0.56  0.54  0.52  0.64  0.76  0.88  0.75  0.62  0.50  0.53  0.56
0.59  0.56  0.54  0.52  0.64  0.76  0.88  0.75  0.62  0.50  0.53  0.56  0.59  0.56  0.54  0.52  0.64  0.76  0.88  0.75  0.62  0.50  0.53  0.56
0.59  0.56  0.54  0.52  0.64  0.76  0.88  0.75  0.62  0.50  0.53  0.56  0.59  0.56  0.54  0.52  0.64  0.76  0.88  0.75  0.62  0.50  0.53  0.56
0.59  0.56  0.54  0.52  0.64  0.76  0.88  0.75  0.62  0.50  0.53  0.56  0.59  0.56  0.54  0.52  0.64  0.76  0.88  0.75  0.62  0.50  0.53  0.56
0.59  0.56  0.54  0.52  0.64  0.76  0.88  0.75  0.62  0.50  0.53  0.56  0.59  0.56  0.54  0.52  0.64  0.76  0.88  0.75  0.62  0.50  0.53  0.56
$beta by ik, ith
0.58  0.58  0.57  0.56  0.67  0.78  0.89  0.87  0.84  0.81  0.83  0.84  0.85  0.83  0.81  0.79  0.82  0.85  0.88  0.76  0.63  0.51  0.53  0.56
0.58  0.58  0.57  0.56  0.67  0.78  0.89  0.87  0.84  0.81  0.83  0.84  0.85  0.83  0.81  0.79  0.82  0.85  0.88  0.76  0.63  0.51  0.53  0.56
0.58  0.58  0.57  0.56  0.67  0.78  0.89  0.87  0.84  0.81  0.83  0.84  0.85  0.83  0.81  0.79  0.82  0.85  0.88  0.76  0.63  0.51  0.53  0.56
0.58  0.58  0.57  0.56  0.67  0.78  0.89  0.87  0.84  0.81  0.83  0.84  0.85  0.83  0.81  0.79  0.82  0.85  0.88  0.76  0.63  0.51  0.53  0.56
0.58  0.58  0.57  0.56  0.67  0.78  0.89  0.87  0.84  0.81  0.83  0.84  0.85  0.83  0.81  0.79  0.82  0.85  0.88  0.76  0.63  0.51  0.53  0.56
0.58  0.58  0.57  0.56  0.67  0.78  0.89  0.87  0.84  0.81  0.83  0.84  0.85  0.83  0.81  0.79  0.82  0.85  0.88  0.76  0.63  0.51  0.53  0.56
0.58  0.58  0.57  0.56  0.67  0.78  0.89  0.87  0.84  0.81  0.83  0.84  0.85  0.83  0.81  0.79  0.82  0.85  0.88  0.76  0.63  0.51  0.53  0.56
0.58  0.58  0.57  0.56  0.67  0.78  0.89  0.87  0.84  0.81  0.83  0.84  0.85  0.83  0.81  0.79  0.82  0.85  0.88  0.76  0.63  0.51  0.53  0.56
0.58  0.58  0.57  0.56  0.67  0.78  0.89  0.87  0.84  0.81  0.83  0.84  0.85  0.83  0.81  0.79  0.82  0.85  0.88  0.76  0.63  0.51  0.53  0.56
0.58  0.58  0.57  0.56  0.67  0.78  0.89  0.87  0.84  0.81  0.83  0.84  0.85  0.83  0.81  0.79  0.82  0.85  0.88  0.76  0.63  0.51  0.53  0.56
0.58  0.58  0.57  0.56  0.67  0.78  0.89  0.87  0.84  0.81  0.83  0.84  0.85  0.83  0.81  0.79  0.82  0.85  0.88  0.76  0.63  0.51  0.53  0.56
0.58  0.58  0.57  0.56  0.67  0.78  0.89  0.87  0.84  0.81  0.83  0.84  0.85  0.83  0.81  0.79  0.82  0.85  0.88  0.76  0.63  0.51  0.53  0.56
0.58  0.58  0.57  0.56  0.67  0.78  0.89  0.87  0.84  0.81  0.83  0.84  0.85  0.83  0.81  0.79  0.82  0.85  0.88  0.76  0.63  0.51  0.53  0.56
0.58  0.58  0.57  0.56  0.67  0.78  0.89  0.87  0.84  0.81  0.83  0.84  0.85  0.83  0.81  0.79  0.82  0.85  0.88  0.76  0.63  0.51  0.53  0.56
0.58  0.58  0.57  0.56  0.67  0.78  0.89  0.87  0.84  0.81  0.83  0.84  0.85  0.83  0.81  0.79  0.82  0.85  0.88  0.76  0.63  0.51  0.53  0.56
0.58  0.58  0.57  0.56  0.67  0.78  0.89  0.87  0.84  0.81  0.83  0.84  0.85  0.83  0.81  0.79  0.82  0.85  0.88  0.76  0.63  0.51  0.53  0.56
0.58  0.58  0.57  0.56  0.67  0.78  0.89  0.87  0.84  0.81  0.83  0.84  0.85  0.83  0.81  0.79  0.82  0.85  0.88  0.76  0.63  0.51  0.53  0.56
0.58  0.58  0.57  0.56  0.67  0.78  0.89  0.87  0.84  0.81  0.83  0.84  0.85  0.83  0.81  0.79  0.82  0.85  0.88  0.76  0.63  0.51  0.53  0.56
0.58  0.58  0.57  0.56  0.67  0.78  0.89  0.87  0.84  0.81  0.83  0.84  0.85  0.83  0.81  0.79  0.82  0.85  0.88  0.76  0.63  0.51  0.53  0.56
0.58  0.58  0.57  0.56  0.67  0.78  0.89  0.87  0.84  0.81  0.83  0.84  0.85  0.83  0.81  0.79  0.82  0.85  0.88  0.76  0.63  0.51  0.53  0.56
0.58  0.58  0.57  0.56  0.67  0.78  0.89  0.87  0.84  0.81  0.83  0.84  0.85  0.83  0.81  0.79  0.82  0.85  0.88  0.76  0.63  0.51  0.53  0.56
0.58  0.58  0.57  0.56  0.67  0.78  0.89  0.87  0.84  0.81  0.83  0.84  0.85  0.83  0.81  0.79  0.82  0.85  0.88  0.76  0.63  0.51  0.53  0.56
0.58  0.58  0.57  0.56  0.67  0.78  0.89  0.87  0.84  0.81  0.83  0.84  0.85  0.83  0.81  0.79  0.82  0.85  0.88  0.76  0.63  0.51  0.53  0.56
0.58  0.58  0.57  0.56  0.67  0.78  0.89  0.87  0.84  0.81  0.83  0.84  0.85  0.83  0.81  0.79  0.82  0.85  0.88  0.76  0.63  0.51  0.53  0.56
0.58  0.58  0.57  0.56  0.67  0.78  0.89  0.87  0.84  0.81  0.83  0.84  0.85  0.83  0.81  0.79  0.82  0.85  0.88  0.76  0.63  0.51  0.53  0.56
$ ilon ilat of the cell. lon: 7.88671096, 31.62907758
57   1
$ sizes of the cell in km
    69.287       65.812       63.794       64.670       65.813       66.342       68.613       69.948       70.742       72.261       73.025       73.764       69.287       65.812       63.794       64.670       65.813       66.342       68.613       69.948       70.742       72.261       73.025       73.764
$ mean alpha: 0.543850520139
$ mean beta: 0.685445624003
$alpha by ik, ith
0.54  0.49  0.43  0.38  0.54  0.70  0.87  0.71  0.55  0.39  0.44  0.49  0.54  0.49  0.43  0.38  0.54  0.70  0.87  0.71  0.55  0.39  0.44  0.49
0.54  0.49  0.43  0.38  0.54  0.70  0.87  0.71  0.55  0.39  0.44  0.49  0.54  0.49  0.43  0.38  0.54  0.70  0.87  0.71  0.55  0.39  0.44  0.49
0.54  0.49  0.43  0.38  0.54  0.70  0.87  0.71  0.55  0.39  0.44  0.49  0.54  0.49  0.43  0.38  0.54  0.70  0.87  0.71  0.55  0.39  0.44  0.49
0.54  0.49  0.43  0.38  0.54  0.70  0.87  0.71  0.55  0.39  0.44  0.49  0.54  0.49  0.43  0.38  0.54  0.70  0.87  0.71  0.55  0.39  0.44  0.49
0.54  0.49  0.43  0.38  0.54  0.70  0.87  0.71  0.55  0.39  0.44  0.49  0.54  0.49  0.43  0.38  0.54  0.70  0.87  0.71  0.55  0.39  0.44  0.49
0.54  0.49  0.43  0.38  0.54  0.70  0.87  0.71  0.55  0.39  0.44  0.49  0.54  0.49  0.43  0.38  0.54  0.70  0.87  0.71  0.55  0.39  0.44  0.49
0.54  0.49  0.43  0.38  0.54  0.70  0.87  0.71  0.55  0.39  0.44  0.49  0.54  0.49  0.43  0.38  0.54  0.70  0.87  0.71  0.55  0.39  0.44  0.49
0.54  0.49  0.43  0.38  0.54  0.70  0.87  0.71  0.55  0.39  0.44  0.49  0.54  0.49  0.43  0.38  0.54  0.70  0.87  0.71  0.55  0.39  0.44  0.49
0.54  0.49  0.43  0.38  0.54  0.70  0.87  0.71  0.55  0.39  0.44  0.49  0.54  0.49  0.43  0.38  0.54  0.70  0.87  0.71  0.55  0.39  0.44  0.49
0.54  0.49  0.43  0.38  0.54  0.70  0.87  0.71  0.55  0.39  0.44  0.49  0.54  0.49  0.43  0.38  0.54  0.70  0.87  0.71  0.55  0.39  0.44  0.49
0.54  0.49  0.43  0.38  0.54  0.70  0.87  0.71  0.55  0.39  0.44  0.49  0.54  0.49  0.43  0.38  0.54  0.70  0.87  0.71  0.55  0.39  0.44  0.49
0.54  0.49  0.43  0.38  0.54  0.70  0.87  0.71  0.55  0.39  0.44  0.49  0.54  0.49  0.43  0.38  0.54  0.70  0.87  0.71  0.55  0.39  0.44  0.49
0.54  0.49  0.43  0.38  0.54  0.70  0.87  0.71  0.55  0.39  0.44  0.49  0.54  0.49  0.43  0.38  0.54  0.70  0.87  0.71  0.55  0.39  0.44  0.49
0.54  0.49  0.43  0.38  0.54  0.70  0.87  0.71  0.55  0.39  0.44  0.49  0.54  0.49  0.43  0.38  0.54  0.70  0.87  0.71  0.55  0.39  0.44  0.49
0.54  0.49  0.43  0.38  0.54  0.70  0.87  0.71  0.55  0.39  0.44  0.49  0.54  0.49  0.43  0.38  0.54  0.70  0.87  0.71  0.55  0.39  0.44  0.49
0.54  0.49  0.43  0.38  0.54  0.70  0.87  0.71  0.55  0.39  0.44  0.49  0.54  0.49  0.43  0.38  0.54  0.70  0.87  0.71  0.55  0.39  0.44  0.49
0.54  0.49  0.43  0.38  0.54  0.70  0.87  0.71  0.55  0.39  0.44  0.49  0.54  0.49  0.43  0.38  0.54  0.70  0.87  0.71  0.55  0.39  0.44  0.49
0.54  0.49  0.43  0.38  0.54  0.70  0.87  0.71  0.55  0.39  0.44  0.49  0.54  0.49  0.43  0.38  0.54  0.70  0.87  0.71  0.55  0.39  0.44  0.49
0.54  0.49  0.43  0.38  0.54  0.70  0.87  0.71  0.55  0.39  0.44  0.49  0.54  0.49  0.43  0.38  0.54  0.70  0.87  0.71  0.55  0.39  0.44  0.49
0.54  0.49  0.43  0.38  0.54  0.70  0.87  0.71  0.55  0.39  0.44  0.49  0.54  0.49  0.43  0.38  0.54  0.70  0.87  0.71  0.55  0.39  0.44  0.49
0.54  0.49  0.43  0.38  0.54  0.70  0.87  0.71  0.55  0.39  0.44  0.49  0.54  0.49  0.43  0.38  0.54  0.70  0.87  0.71  0.55  0.39  0.44  0.49
0.54  0.49  0.43  0.38  0.54  0.70  0.87  0.71  0.55  0.39  0.44  0.49  0.54  0.49  0.43  0.38  0.54  0.70  0.87  0.71  0.55  0.39  0.44  0.49
0.54  0.49  0.43  0.38  0.54  0.70  0.87  0.71  0.55  0.39  0.44  0.49  0.54  0.49  0.43  0.38  0.54  0.70  0.87  0.71  0.55  0.39  0.44  0.49
0.54  0.49  0.43  0.38  0.54  0.70  0.87  0.71  0.55  0.39  0.44  0.49  0.54  0.49  0.43  0.38  0.54  0.70  0.87  0.71  0.55  0.39  0.44  0.49
0.54  0.49  0.43  0.38  0.54  0.70  0.87  0.71  0.55  0.39  0.44  0.49  0.54  0.49  0.43  0.38  0.54  0.70  0.87  0.71  0.55  0.39  0.44  0.49
$beta by ik, ith
0.68  0.65  0.61  0.58  0.68  0.77  0.87  0.79  0.72  0.64  0.66  0.68  0.69  0.66  0.64  0.61  0.69  0.77  0.86  0.76  0.66  0.55  0.60  0.64
0.68  0.65  0.61  0.58  0.68  0.77  0.87  0.79  0.72  0.64  0.66  0.68  0.69  0.66  0.64  0.61  0.69  0.77  0.86  0.76  0.66  0.55  0.60  0.64
0.68  0.65  0.61  0.58  0.68  0.77  0.87  0.79  0.72  0.64  0.66  0.68  0.69  0.66  0.64  0.61  0.69  0.77  0.86  0.76  0.66  0.55  0.60  0.64
0.68  0.65  0.61  0.58  0.68  0.77  0.87  0.79  0.72  0.64  0.66  0.68  0.69  0.66  0.64  0.61  0.69  0.77  0.86  0.76  0.66  0.55  0.60  0.64
0.68  0.65  0.61  0.58  0.68  0.77  0.87  0.79  0.72  0.64  0.66  0.68  0.69  0.66  0.64  0.61  0.69  0.77  0.86  0.76  0.66  0.55  0.60  0.64
0.68  0.65  0.61  0.58  0.68  0.77  0.87  0.79  0.72  0.64  0.66  0.68  0.69  0.66  0.64  0.61  0.69  0.77  0.86  0.76  0.66  0.55  0.60  0.64
0.68  0.65  0.61  0.58  0.68  0.77  0.87  0.79  0.72  0.64  0.66  0.68  0.69  0.66  0.64  0.61  0.69  0.77  0.86  0.76  0.66  0.55  0.60  0.64
0.68  0.65  0.61  0.58  0.68  0.77  0.87  0.79  0.72  0.64  0.66  0.68  0.69  0.66  0.64  0.61  0.69  0.77  0.86  0.76  0.66  0.55  0.60  0.64
0.68  0.65  0.61  0.58  0.68  0.77  0.87  0.79  0.72  0.64  0.66  0.68  0.69  0.66  0.64  0.61  0.69  0.77  0.86  0.76  0.66  0.55  0.60  0.64
0.68  0.65  0.61  0.58  0.68  0.77  0.87  0.79  0.72  0.64  0.66  0.68  0.69  0.66  0.64  0.61  0.69  0.77  0.86  0.76  0.66  0.55  0.60  0.64
0.68  0.65  0.61  0.58  0.68  0.77  0.87  0.79  0.72  0.64  0.66  0.68  0.69  0.66  0.64  0.61  0.69  0.77  0.86  0.76  0.66  0.55  0.60  0.64
0.68  0.65  0.61  0.58  0.68  0.77  0.87  0.79  0.72  0.64  0.66  0.68  0.69  0.66  0.64  0.61  0.69  0.77  0.86  0.76  0.66  0.55  0.60  0.64
0.68  0.65  0.61  0.58  0.68  0.77  0.87  0.79  0.72  0.64  0.66  0.68  0.69  0.66  0.64  0.61  0.69  0.77  0.86  0.76  0.66  0.55  0.60  0.64
0.68  0.65  0.61  0.58  0.68  0.77  0.87  0.79  0.72  0.64  0.66  0.68  0.69  0.66  0.64  0.61  0.69  0.77  0.86  0.76  0.66  0.55  0.60  0.64
0.68  0.65  0.61  0.58  0.68  0.77  0.87  0.79  0.72  0.64  0.66  0.68  0.69  0.66  0.64  0.61  0.69  0.77  0.86  0.76  0.66  0.55  0.60  0.64
0.68  0.65  0.61  0.58  0.68  0.77  0.87  0.79  0.72  0.64  0.66  0.68  0.69  0.66  0.64  0.61  0.69  0.77  0.86  0.76  0.66  0.55  0.60  0.64
0.68  0.65  0.61  0.58  0.68  0.77  0.87  0.79  0.72  0.64  0.66  0.68  0.69  0.66  0.64  0.61  0.69  0.77  0.86  0.76  0.66  0.55  0.60  0.64
0.68  0.65  0.61  0.58  0.68  0.77  0.87  0.79  0.72  0.64  0.66  0.68  0.69  0.66  0.64  0.61  0.69  0.77  0.86  0.76  0.66  0.55  0.60  0.64
0.68  0.65  0.61  0.58  0.68  0.77  0.87  0.79  0.72  0.64  0.66  0.68  0.69  0.66  0.64  0.61  0.69  0.77  0.86  0.76  0.66  0.55  0.60  0.64
0.68  0.65  0.61  0.58  0.68  0.77  0.87  0.79  0.72  0.64  0.66  0.68  0.69  0.66  0.64  0.61  0.69  0.77  0.86  0.76  0.66  0.55  0.60  0.64
0.68  0.65  0.61  0.58  0.68  0.77  0.87  0.79  0.72  0.64  0.66  0.68  0.69  0.66  0.64  0.61  0.69  0.77  0.86  0.76  0.66  0.55  0.60  0.64
0.68  0.65  0.61  0.58  0.68  0.77  0.87  0.79  0.72  0.64  0.66  0.68  0.69  0.66  0.64  0.61  0.69  0.77  0.86  0.76  0.66  0.55  0.60  0.64
0.68  0.65  0.61  0.58  0.68  0.77  0.87  0.79  0.72  0.64  0.66  0.68  0.69  0.66  0.64  0.61  0.69  0.77  0.86  0.76  0.66  0.55  0.60  0.64
0.68  0.65  0.61  0.58  0.68  0.77  0.87  0.79  0.72  0.64  0.66  0.68  0.69  0.66  0.64  0.61  0.69  0.77  0.86  0.76  0.66  0.55  0.60  0.64
0.68  0.65  0.61  0.58  0.68  0.77  0.87  0.79  0.72  0.64  0.66  0.68  0.69  0.66  0.64  0.61  0.69  0.77  0.86  0.76  0.66  0.55  0.60  0.64
$ ilon ilat of the cell. lon: 7.82183451, 30.96019661
58   1
$ sizes of the cell in km
    70.118       69.245       69.229       71.860       76.296       79.683       81.447       81.519       80.455       77.959       74.515       71.908       70.118       69.245       69.229       71.860       76.296       79.683       81.447       81.519       80.455       77.959       74.515       71.908
$ mean alpha: 0.496670308252
$ mean beta: 0.660304500819
$alpha by ik, ith
0.56  0.48  0.40  0.32  0.50  0.68  0.86  0.66  0.45  0.25  0.35  0.45  0.56  0.48  0.40  0.32  0.50  0.68  0.86  0.66  0.45  0.25  0.35  0.45
0.56  0.48  0.40  0.32  0.50  0.68  0.86  0.66  0.45  0.25  0.35  0.45  0.56  0.48  0.40  0.32  0.50  0.68  0.86  0.66  0.45  0.25  0.35  0.45
0.56  0.48  0.40  0.32  0.50  0.68  0.86  0.66  0.45  0.25  0.35  0.45  0.56  0.48  0.40  0.32  0.50  0.68  0.86  0.66  0.45  0.25  0.35  0.45
0.56  0.48  0.40  0.32  0.50  0.68  0.86  0.66  0.45  0.25  0.35  0.45  0.56  0.48  0.40  0.32  0.50  0.68  0.86  0.66  0.45  0.25  0.35  0.45
0.56  0.48  0.40  0.32  0.50  0.68  0.86  0.66  0.45  0.25  0.35  0.45  0.56  0.48  0.40  0.32  0.50  0.68  0.86  0.66  0.45  0.25  0.35  0.45
0.56  0.48  0.40  0.32  0.50  0.68  0.86  0.66  0.45  0.25  0.35  0.45  0.56  0.48  0.40  0.32  0.50  0.68  0.86  0.66  0.45  0.25  0.35  0.45
0.56  0.48  0.40  0.32  0.50  0.68  0.86  0.66  0.45  0.25  0.35  0.45  0.56  0.48  0.40  0.32  0.50  0.68  0.86  0.66  0.45  0.25  0.35  0.45
0.56  0.48  0.40  0.32  0.50  0.68  0.86  0.66  0.45  0.25  0.35  0.45  0.56  0.48  0.40  0.32  0.50  0.68  0.86  0.66  0.45  0.25  0.35  0.45
0.56  0.48  0.40  0.32  0.50  0.68  0.86  0.66  0.45  0.25  0.35  0.45  0.56  0.48  0.40  0.32  0.50  0.68  0.86  0.66  0.45  0.25  0.35  0.45
0.56  0.48  0.40  0.32  0.50  0.68  0.86  0.66  0.45  0.25  0.35  0.45  0.56  0.48  0.40  0.32  0.50  0.68  0.86  0.66  0.45  0.25  0.35  0.45
0.56  0.48  0.40  0.32  0.50  0.68  0.86  0.66  0.45  0.25  0.35  0.45  0.56  0.48  0.40  0.32  0.50  0.68  0.86  0.66  0.45  0.25  0.35  0.45
0.56  0.48  0.40  0.32  0.50  0.68  0.86  0.66  0.45  0.25  0.35  0.45  0.56  0.48  0.40  0.32  0.50  0.68  0.86  0.66  0.45  0.25  0.35  0.45
0.56  0.48  0.40  0.32  0.50  0.68  0.86  0.66  0.45  0.25  0.35  0.45  0.56  0.48  0.40  0.32  0.50  0.68  0.86  0.66  0.45  0.25  0.35  0.45
0.56  0.48  0.40  0.32  0.50  0.68  0.86  0.66  0.45  0.25  0.35  0.45  0.56  0.48  0.40  0.32  0.50  0.68  0.86  0.66  0.45  0.25  0.35  0.45
0.56  0.48  0.40  0.32  0.50  0.68  0.86  0.66  0.45  0.25  0.35  0.45  0.56  0.48  0.40  0.32  0.50  0.68  0.86  0.66  0.45  0.25  0.35  0.45
0.56  0.48  0.40  0.32  0.50  0.68  0.86  0.66  0.45  0.25  0.35  0.45  0.56  0.48  0.40  0.32  0.50  0.68  0.86  0.66  0.45  0.25  0.35  0.45
0.56  0.48  0.40  0.32  0.50  0.68  0.86  0.66  0.45  0.25  0.35  0.45  0.56  0.48  0.40  0.32  0.50  0.68  0.86  0.66  0.45  0.25  0.35  0.45
0.56  0.48  0.40  0.32  0.50  0.68  0.86  0.66  0.45  0.25  0.35  0.45  0.56  0.48  0.40  0.32  0.50  0.68  0.86  0.66  0.45  0.25  0.35  0.45
0.56  0.48  0.40  0.32  0.50  0.68  0.86  0.66  0.45  0.25  0.35  0.45  0.56  0.48  0.40  0.32  0.50  0.68  0.86  0.66  0.45  0.25  0.35  0.45
0.56  0.48  0.40  0.32  0.50  0.68  0.86  0.66  0.45  0.25  0.35  0.45  0.56  0.48  0.40  0.32  0.50  0.68  0.86  0.66  0.45  0.25  0.35  0.45
0.56  0.48  0.40  0.32  0.50  0.68  0.86  0.66  0.45  0.25  0.35  0.45  0.56  0.48  0.40  0.32  0.50  0.68  0.86  0.66  0.45  0.25  0.35  0.45
0.56  0.48  0.40  0.32  0.50  0.68  0.86  0.66  0.45  0.25  0.35  0.45  0.56  0.48  0.40  0.32  0.50  0.68  0.86  0.66  0.45  0.25  0.35  0.45
0.56  0.48  0.40  0.32  0.50  0.68  0.86  0.66  0.45  0.25  0.35  0.45  0.56  0.48  0.40  0.32  0.50  0.68  0.86  0.66  0.45  0.25  0.35  0.45
0.56  0.48  0.40  0.32  0.50  0.68  0.86  0.66  0.45  0.25  0.35  0.45  0.56  0.48  0.40  0.32  0.50  0.68  0.86  0.66  0.45  0.25  0.35  0.45
0.56  0.48  0.40  0.32  0.50  0.68  0.86  0.66  0.45  0.25  0.35  0.45  0.56  0.48  0.40  0.32  0.50  0.68  0.86  0.66  0.45  0.25  0.35  0.45
$beta by ik, ith
0.76  0.71  0.65  0.59  0.68  0.77  0.86  0.72  0.58  0.44  0.50  0.57  0.63  0.60  0.56  0.53  0.64  0.74  0.85  0.77  0.69  0.61  0.66  0.71
0.76  0.71  0.65  0.59  0.68  0.77  0.86  0.72  0.58  0.44  0.50  0.57  0.63  0.60  0.56  0.53  0.64  0.74  0.85  0.77  0.69  0.61  0.66  0.71
0.76  0.71  0.65  0.59  0.68  0.77  0.86  0.72  0.58  0.44  0.50  0.57  0.63  0.60  0.56  0.53  0.64  0.74  0.85  0.77  0.69  0.61  0.66  0.71
0.76  0.71  0.65  0.59  0.68  0.77  0.86  0.72  0.58  0.44  0.50  0.57  0.63  0.60  0.56  0.53  0.64  0.74  0.85  0.77  0.69  0.61  0.66  0.71
0.76  0.71  0.65  0.59  0.68  0.77  0.86  0.72  0.58  0.44  0.50  0.57  0.63  0.60  0.56  0.53  0.64  0.74  0.85  0.77  0.69  0.61  0.66  0.71
0.76  0.71  0.65  0.59  0.68  0.77  0.86  0.72  0.58  0.44  0.50  0.57  0.63  0.60  0.56  0.53  0.64  0.74  0.85  0.77  0.69  0.61  0.66  0.71
0.76  0.71  0.65  0.59  0.68  0.77  0.86  0.72  0.58  0.44  0.50  0.57  0.63  0.60  0.56  0.53  0.64  0.74  0.85  0.77  0.69  0.61  0.66  0.71
0.76  0.71  0.65  0.59  0.68  0.77  0.86  0.72  0.58  0.44  0.50  0.57  0.63  0.60  0.56  0.53  0.64  0.74  0.85  0.77  0.69  0.61  0.66  0.71
0.76  0.71  0.65  0.59  0.68  0.77  0.86  0.72  0.58  0.44  0.50  0.57  0.63  0.60  0.56  0.53  0.64  0.74  0.85  0.77  0.69  0.61  0.66  0.71
0.76  0.71  0.65  0.59  0.68  0.77  0.86  0.72  0.58  0.44  0.50  0.57  0.63  0.60  0.56  0.53  0.64  0.74  0.85  0.77  0.69  0.61  0.66  0.71
0.76  0.71  0.65  0.59  0.68  0.77  0.86  0.72  0.58  0.44  0.50  0.57  0.63  0.60  0.56  0.53  0.64  0.74  0.85  0.77  0.69  0.61  0.66  0.71
0.76  0.71  0.65  0.59  0.68  0.77  0.86  0.72  0.58  0.44  0.50  0.57  0.63  0.60  0.56  0.53  0.64  0.74  0.85  0.77  0.69  0.61  0.66  0.71
0.76  0.71  0.65  0.59  0.68  0.77  0.86  0.72  0.58  0.44  0.50  0.57  0.63  0.60  0.56  0.53  0.64  0.74  0.85  0.77  0.69  0.61  0.66  0.71
0.76  0.71  0.65  0.59  0.68  0.77  0.86  0.72  0.58  0.44  0.50  0.57  0.63  0.60  0.56  0.53  0.64  0.74  0.85  0.77  0.69  0.61  0.66  0.71
0.76  0.71  0.65  0.59  0.68  0.77  0.86  0.72  0.58  0.44  0.50  0.57  0.63  0.60  0.56  0.53  0.64  0.74  0.85  0.77  0.69  0.61  0.66  0.71
0.76  0.71  0.65  0.59  0.68  0.77  0.86  0.72  0.58  0.44  0.50  0.57  0.63  0.60  0.56  0.53  0.64  0.74  0.85  0.77  0.69  0.61  0.66  0.71
0.76  0.71  0.65  0.59  0.68  0.77  0.86  0.72  0.58  0.44  0.50  0.57  0.63  0.60  0.56  0.53  0.64  0.74  0.85  0.77  0.69  0.61  0.66  0.71
0.76  0.71  0.65  0.59  0.68  0.77  0.86  0.72  0.58  0.44  0.50  0.57  0.63  0.60  0.56  0.53  0.64  0.74  0.85  0.77  0.69  0.61  0.66  0.71
0.76  0.71  0.65  0.59  0.68  0.77  0.86  0.72  0.58  0.44  0.50  0.57  0.63  0.60  0.56  0.53  0.64  0.74  0.85  0.77  0.69  0.61  0.66  0.71
0.76  0.71  0.65  0.59  0.68  0.77  0.86  0.72  0.58  0.44  0.50  0.57  0.63  0.60  0.56  0.53  0.64  0.74  0.85  0.77  0.69  0.61  0.66  0.71
0.76  0.71  0.65  0.59  0.68  0.77  0.86  0.72  0.58  0.44  0.50  0.57  0.63  0.60  0.56  0.53  0.64  0.74  0.85  0.77  0.69  0.61  0.66  0.71
0.76  0.71  0.65  0.59  0.68  0.77  0.86  0.72  0.58  0.44  0.50  0.57  0.63  0.60  0.56  0.53  0.64  0.74  0.85  0.77  0.69  0.61  0.66  0.71
0.76  0.71  0.65  0.59  0.68  0.77  0.86  0.72  0.58  0.44  0.50  0.57  0.63  0.60  0.56  0.53  0.64  0.74  0.85  0.77  0.69  0.61  0.66  0.71
0.76  0.71  0.65  0.59  0.68  0.77  0.86  0.72  0.58  0.44  0.50  0.57  0.63  0.60  0.56  0.53  0.64  0.74  0.85  0.77  0.69  0.61  0.66  0.71
0.76  0.71  0.65  0.59  0.68  0.77  0.86  0.72  0.58  0.44  0.50  0.57  0.63  0.60  0.56  0.53  0.64  0.74  0.85  0.77  0.69  0.61  0.66  0.71
$ ilon ilat of the cell. lon: 7.58521044, 32.73290094
117   1
$ sizes of the cell in km
    83.843       83.108       83.748       84.221       85.112       85.447       85.579       87.247       87.779       88.332       86.339       84.634       83.843       83.108       83.748       84.221       85.112       85.447       85.579       87.247       87.779       88.332       86.339       84.634
$ mean alpha: 0.636192730565
$ mean beta: 0.761505339211
$alpha by ik, ith
0.62  0.60  0.58  0.57  0.67  0.78  0.89  0.75  0.61  0.47  0.52  0.57  0.62  0.60  0.58  0.57  0.67  0.78  0.89  0.75  0.61  0.47  0.52  0.57
0.62  0.60  0.58  0.57  0.67  0.78  0.89  0.75  0.61  0.47  0.52  0.57  0.62  0.60  0.58  0.57  0.67  0.78  0.89  0.75  0.61  0.47  0.52  0.57
0.62  0.60  0.58  0.57  0.67  0.78  0.89  0.75  0.61  0.47  0.52  0.57  0.62  0.60  0.58  0.57  0.67  0.78  0.89  0.75  0.61  0.47  0.52  0.57
0.62  0.60  0.58  0.57  0.67  0.78  0.89  0.75  0.61  0.47  0.52  0.57  0.62  0.60  0.58  0.57  0.67  0.78  0.89  0.75  0.61  0.47  0.52  0.57
0.62  0.60  0.58  0.57  0.67  0.78  0.89  0.75  0.61  0.47  0.52  0.57  0.62  0.60  0.58  0.57  0.67  0.78  0.89  0.75  0.61  0.47  0.52  0.57
0.62  0.60  0.58  0.57  0.67  0.78  0.89  0.75  0.61  0.47  0.52  0.57  0.62  0.60  0.58  0.57  0.67  0.78  0.89  0.75  0.61  0.47  0.52  0.57
0.62  0.60  0.58  0.57  0.67  0.78  0.89  0.75  0.61  0.47  0.52  0.57  0.62  0.60  0.58  0.57  0.67  0.78  0.89  0.75  0.61  0.47  0.52  0.57
0.62  0.60  0.58  0.57  0.67  0.78  0.89  0.75  0.61  0.47  0.52  0.57  0.62  0.60  0.58  0.57  0.67  0.78  0.89  0.75  0.61  0.47  0.52  0.57
0.62  0.60  0.58  0.57  0.67  0.78  0.89  0.75  0.61  0.47  0.52  0.57  0.62  0.60  0.58  0.57  0.67  0.78  0.89  0.75  0.61  0.47  0.52  0.57
0.62  0.60  0.58  0.57  0.67  0.78  0.89  0.75  0.61  0.47  0.52  0.57  0.62  0.60  0.58  0.57  0.67  0.78  0.89  0.75  0.61  0.47  0.52  0.57
0.62  0.60  0.58  0.57  0.67  0.78  0.89  0.75  0.61  0.47  0.52  0.57  0.62  0.60  0.58  0.57  0.67  0.78  0.89  0.75  0.61  0.47  0.52  0.57
0.62  0.60  0.58  0.57  0.67  0.78  0.89  0.75  0.61  0.47  0.52  0.57  0.62  0.60  0.58  0.57  0.67  0.78  0.89  0.75  0.61  0.47  0.52  0.57
0.62  0.60  0.58  0.57  0.67  0.78  0.89  0.75  0.61  0.47  0.52  0.57  0.62  0.60  0.58  0.57  0.67  0.78  0.89  0.75  0.61  0.47  0.52  0.57
0.62  0.60  0.58  0.57  0.67  0.78  0.89  0.75  0.61  0.47  0.52  0.57  0.62  0.60  0.58  0.57  0.67  0.78  0.89  0.75  0.61  0.47  0.52  0.57
0.62  0.60  0.58  0.57  0.67  0.78  0.89  0.75  0.61  0.47  0.52  0.57  0.62  0.60  0.58  0.57  0.67  0.78  0.89  0.75  0.61  0.47  0.52  0.57
0.62  0.60  0.58  0.57  0.67  0.78  0.89  0.75  0.61  0.47  0.52  0.57  0.62  0.60  0.58  0.57  0.67  0.78  0.89  0.75  0.61  0.47  0.52  0.57
0.62  0.60  0.58  0.57  0.67  0.78  0.89  0.75  0.61  0.47  0.52  0.57  0.62  0.60  0.58  0.57  0.67  0.78  0.89  0.75  0.61  0.47  0.52  0.57
0.62  0.60  0.58  0.57  0.67  0.78  0.89  0.75  0.61  0.47  0.52  0.57  0.62  0.60  0.58  0.57  0.67  0.78  0.89  0.75  0.61  0.47  0.52  0.57
0.62  0.60  0.58  0.57  0.67  0.78  0.89  0.75  0.61  0.47  0.52  0.57  0.62  0.60  0.58  0.57  0.67  0.78  0.89  0.75  0.61  0.47  0.52  0.57
0.62  0.60  0.58  0.57  0.67  0.78  0.89  0.75  0.61  0.47  0.52  0.57  0.62  0.60  0.58  0.57  0.67  0.78  0.89  0.75  0.61  0.47  0.52  0.57
0.62  0.60  0.58  0.57  0.67  0.78  0.89  0.75  0.61  0.47  0.52  0.57  0.62  0.60  0.58  0.57  0.67  0.78  0.89  0.75  0.61  0.47  0.52  0.57
0.62  0.60  0.58  0.57  0.67  0.78  0.89  0.75  0.61  0.47  0.52  0.57  0.62  0.60  0.58  0.57  0.67  0.78  0.89  0.75  0.61  0.47  0.52  0.57
0.62  0.60  0.58  0.57  0.67  0.78  0.89  0.75  0.61  0.47  0.52  0.57  0.62  0.60  0.58  0.57  0.67  0.78  0.89  0.75  0.61  0.47  0.52  0.57
0.62  0.60  0.58  0.57  0.67  0.78  0.89  0.75  0.61  0.47  0.52  0.57  0.62  0.60  0.58  0.57  0.67  0.78  0.89  0.75  0.61  0.47  0.52  0.57
0.62  0.60  0.58  0.57  0.67  0.78  0.89  0.75  0.61  0.47  0.52  0.57  0.62  0.60  0.58  0.57  0.67  0.78  0.89  0.75  0.61  0.47  0.52  0.57
$beta by ik, ith
0.91  0.88  0.86  0.84  0.86  0.88  0.89  0.76  0.63  0.50  0.53  0.57  0.60  0.60  0.61  0.61  0.71  0.80  0.89  0.88  0.86  0.84  0.86  0.89
0.91  0.88  0.86  0.84  0.86  0.88  0.89  0.76  0.63  0.50  0.53  0.57  0.60  0.60  0.61  0.61  0.71  0.80  0.89  0.88  0.86  0.84  0.86  0.89
0.91  0.88  0.86  0.84  0.86  0.88  0.89  0.76  0.63  0.50  0.53  0.57  0.60  0.60  0.61  0.61  0.71  0.80  0.89  0.88  0.86  0.84  0.86  0.89
0.91  0.88  0.86  0.84  0.86  0.88  0.89  0.76  0.63  0.50  0.53  0.57  0.60  0.60  0.61  0.61  0.71  0.80  0.89  0.88  0.86  0.84  0.86  0.89
0.91  0.88  0.86  0.84  0.86  0.88  0.89  0.76  0.63  0.50  0.53  0.57  0.60  0.60  0.61  0.61  0.71  0.80  0.89  0.88  0.86  0.84  0.86  0.89
0.91  0.88  0.86  0.84  0.86  0.88  0.89  0.76  0.63  0.50  0.53  0.57  0.60  0.60  0.61  0.61  0.71  0.80  0.89  0.88  0.86  0.84  0.86  0.89
0.91  0.88  0.86  0.84  0.86  0.88  0.89  0.76  0.63  0.50  0.53  0.57  0.60  0.60  0.61  0.61  0.71  0.80  0.89  0.88  0.86  0.84  0.86  0.89
0.91  0.88  0.86  0.84  0.86  0.88  0.89  0.76  0.63  0.50  0.53  0.57  0.60  0.60  0.61  0.61  0.71  0.80  0.89  0.88  0.86  0.84  0.86  0.89
0.91  0.88  0.86  0.84  0.86  0.88  0.89  0.76  0.63  0.50  0.53  0.57  0.60  0.60  0.61  0.61  0.71  0.80  0.89  0.88  0.86  0.84  0.86  0.89
0.91  0.88  0.86  0.84  0.86  0.88  0.89  0.76  0.63  0.50  0.53  0.57  0.60  0.60  0.61  0.61  0.71  0.80  0.89  0.88  0.86  0.84  0.86  0.89
0.91  0.88  0.86  0.84  0.86  0.88  0.89  0.76  0.63  0.50  0.53  0.57  0.60  0.60  0.61  0.61  0.71  0.80  0.89  0.88  0.86  0.84  0.86  0.89
0.91  0.88  0.86  0.84  0.86  0.88  0.89  0.76  0.63  0.50  0.53  0.57  0.60  0.60  0.61  0.61  0.71  0.80  0.89  0.88  0.86  0.84  0.86  0.89
0.91  0.88  0.86  0.84  0.86  0.88  0.89  0.76  0.63  0.50  0.53  0.57  0.60  0.60  0.61  0.61  0.71  0.80  0.89  0.88  0.86  0.84  0.86  0.89
0.91  0.88  0.86  0.84  0.86  0.88  0.89  0.76  0.63  0.50  0.53  0.57  0.60  0.60  0.61  0.61  0.71  0.80  0.89  0.88  0.86  0.84  0.86  0.89
0.91  0.88  0.86  0.84  0.86  0.88  0.89  0.76  0.63  0.50  0.53  0.57  0.60  0.60  0.61  0.61  0.71  0.80  0.89  0.88  0.86  0.84  0.86  0.89
0.91  0.88  0.86  0.84  0.86  0.88  0.89  0.76  0.63  0.50  0.53  0.57  0.60  0.60  0.61  0.61  0.71  0.80  0.89  0.88  0.86  0.84  0.86  0.89
0.91  0.88  0.86  0.84  0.86  0.88  0.89  0.76  0.63  0.50  0.53  0.57  0.60  0.60  0.61  0.61  0.71  0.80  0.89  0.88  0.86  0.84  0.86  0.89
0.91  0.88  0.86  0.84  0.86  0.88  0.89  0.76  0.63  0.50  0.53  0.57  0.60  0.60  0.61  0.61  0.71  0.80  0.89  0.88  0.86  0.84  0.86  0.89
0.91  0.88  0.86  0.84  0.86  0.88  0.89  0.76  0.63  0.50  0.53  0.57  0.60  0.60  0.61  0.61  0.71  0.80  0.89  0.88  0.86  0.84  0.86  0.89
0.91  0.88  0.86  0.84  0.86  0.88  0.89  0.76  0.63  0.50  0.53  0.57  0.60  0.60  0.61  0.61  0.71  0.80  0.89  0.88  0.86  0.84  0.86  0.89
0.91  0.88  0.86  0.84  0.86  0.88  0.89  0.76  0.63  0.50  0.53  0.57  0.60  0.60  0.61  0.61  0.71  0.80  0.89  0.88  0.86  0.84  0.86  0.89
0.91  0.88  0.86  0.84  0.86  0.88  0.89  0.76  0.63  0.50  0.53  0.57  0.60  0.60  0.61  0.61  0.71  0.80  0.89  0.88  0.86  0.84  0.86  0.89
0.91  0.88  0.86  0.84  0.86  0.88  0.89  0.76  0.63  0.50  0.53  0.57  0.60  0.60  0.61  0.61  0.71  0.80  0.89  0.88  0.86  0.84  0.86  0.89
0.91  0.88  0.86  0.84  0.86  0.88  0.89  0.76  0.63  0.50  0.53  0.57  0.60  0.60  0.61  0.61  0.71  0.80  0.89  0.88  0.86  0.84  0.86  0.89
0.91  0.88  0.86  0.84  0.86  0.88  0.89  0.76  0.63  0.50  0.53  0.57  0.60  0.60  0.61  0.61  0.71  0.80  0.89  0.88  0.86  0.84  0.86  0.89
$ ilon ilat of the cell. lon: 7.69373187, 33.3811302
119   1
$ sizes of the cell in km
    79.641       77.570       71.665       65.439       61.711       58.145       58.019       61.913       65.557       70.641       76.854       79.492       79.641       77.570       71.665       65.439       61.711       58.145       58.019       61.913       65.557       70.641       76.854       79.492
$ mean alpha: 0.633935216682
$ mean beta: 0.743755324691
$alpha by ik, ith
0.56  0.55  0.54  0.53  0.65  0.77  0.88  0.78  0.67  0.56  0.56  0.56  0.56  0.55  0.54  0.53  0.65  0.77  0.88  0.78  0.67  0.56  0.56  0.56
0.56  0.55  0.54  0.53  0.65  0.77  0.88  0.78  0.67  0.56  0.56  0.56  0.56  0.55  0.54  0.53  0.65  0.77  0.88  0.78  0.67  0.56  0.56  0.56
0.56  0.55  0.54  0.53  0.65  0.77  0.88  0.78  0.67  0.56  0.56  0.56  0.56  0.55  0.54  0.53  0.65  0.77  0.88  0.78  0.67  0.56  0.56  0.56
0.56  0.55  0.54  0.53  0.65  0.77  0.88  0.78  0.67  0.56  0.56  0.56  0.56  0.55  0.54  0.53  0.65  0.77  0.88  0.78  0.67  0.56  0.56  0.56
0.56  0.55  0.54  0.53  0.65  0.77  0.88  0.78  0.67  0.56  0.56  0.56  0.56  0.55  0.54  0.53  0.65  0.77  0.88  0.78  0.67  0.56  0.56  0.56
0.56  0.55  0.54  0.53  0.65  0.77  0.88  0.78  0.67  0.56  0.56  0.56  0.56  0.55  0.54  0.53  0.65  0.77  0.88  0.78  0.67  0.56  0.56  0.56
0.56  0.55  0.54  0.53  0.65  0.77  0.88  0.78  0.67  0.56  0.56  0.56  0.56  0.55  0.54  0.53  0.65  0.77  0.88  0.78  0.67  0.56  0.56  0.56
0.56  0.55  0.54  0.53  0.65  0.77  0.88  0.78  0.67  0.56  0.56  0.56  0.56  0.55  0.54  0.53  0.65  0.77  0.88  0.78  0.67  0.56  0.56  0.56
0.56  0.55  0.54  0.53  0.65  0.77  0.88  0.78  0.67  0.56  0.56  0.56  0.56  0.55  0.54  0.53  0.65  0.77  0.88  0.78  0.67  0.56  0.56  0.56
0.56  0.55  0.54  0.53  0.65  0.77  0.88  0.78  0.67  0.56  0.56  0.56  0.56  0.55  0.54  0.53  0.65  0.77  0.88  0.78  0.67  0.56  0.56  0.56
0.56  0.55  0.54  0.53  0.65  0.77  0.88  0.78  0.67  0.56  0.56  0.56  0.56  0.55  0.54  0.53  0.65  0.77  0.88  0.78  0.67  0.56  0.56  0.56
0.56  0.55  0.54  0.53  0.65  0.77  0.88  0.78  0.67  0.56  0.56  0.56  0.56  0.55  0.54  0.53  0.65  0.77  0.88  0.78  0.67  0.56  0.56  0.56
0.56  0.55  0.54  0.53  0.65  0.77  0.88  0.78  0.67  0.56  0.56  0.56  0.56  0.55  0.54  0.53  0.65  0.77  0.88  0.78  0.67  0.56  0.56  0.56
0.56  0.55  0.54  0.53  0.65  0.77  0.88  0.78  0.67  0.56  0.56  0.56  0.56  0.55  0.54  0.53  0.65  0.77  0.88  0.78  0.67  0.56  0.56  0.56
0.56  0.55  0.54  0.53  0.65  0.77  0.88  0.78  0.67  0.56  0.56  0.56  0.56  0.55  0.54  0.53  0.65  0.77  0.88  0.78  0.67  0.56  0.56  0.56
0.56  0.55  0.54  0.53  0.65  0.77  0.88  0.78  0.67  0.56  0.56  0.56  0.56  0.55  0.54  0.53  0.65  0.77  0.88  0.78  0.67  0.56  0.56  0.56
0.56  0.55  0.54  0.53  0.65  0.77  0.88  0.78  0.67  0.56  0.56  0.56  0.56  0.55  0.54  0.53  0.65  0.77  0.88  0.78  0.67  0.56  0.56  0.56
0.56  0.55  0.54  0.53  0.65  0.77  0.88  0.78  0.67  0.56  0.56  0.56  0.56  0.55  0.54  0.53  0.65  0.77  0.88  0.78  0.67  0.56  0.56  0.56
0.56  0.55  0.54  0.53  0.65  0.77  0.88  0.78  0.67  0.56  0.56  0.56  0.56  0.55  0.54  0.53  0.65  0.77  0.88  0.78  0.67  0.56  0.56  0.56
0.56  0.55  0.54  0.53  0.65  0.77  0.88  0.78  0.67  0.56  0.56  0.56  0.56  0.55  0.54  0.53  0.65  0.77  0.88  0.78  0.67  0.56  0.56  0.56
0.56  0.55  0.54  0.53  0.65  0.77  0.88  0.78  0.67  0.56  0.56  0.56  0.56  0.55  0.54  0.53  0.65  0.77  0.88  0.78  0.67  0.56  0.56  0.56
0.56  0.55  0.54  0.53  0.65  0.77  0.88  0.78  0.67  0.56  0.56  0.56  0.56  0.55  0.54  0.53  0.65  0.77  0.88  0.78  0.67  0.56  0.56  0.56
0.56  0.55  0.54  0.53  0.65  0.77  0.88  0.78  0.67  0.56  0.56  0.56  0.56  0.55  0.54  0.53  0.65  0.77  0.88  0.78  0.67  0.56  0.56  0.56
0.56  0.55  0.54  0.53  0.65  0.77  0.88  0.78  0.67  0.56  0.56  0.56  0.56  0.55  0.54  0.53  0.65  0.77  0.88  0.78  0.67  0.56  0.56  0.56
0.56  0.55  0.54  0.53  0.65  0.77  0.88  0.78  0.67  0.56  0.56  0.56  0.56  0.55  0.54  0.53  0.65  0.77  0.88  0.78  0.67  0.56  0.56  0.56
$beta by ik, ith
0.78  0.77  0.76  0.74  0.80  0.85  0.90  0.81  0.72  0.63  0.63  0.63  0.63  0.63  0.62  0.62  0.71  0.79  0.88  0.84  0.80  0.76  0.77  0.78
0.78  0.77  0.76  0.74  0.80  0.85  0.90  0.81  0.72  0.63  0.63  0.63  0.63  0.63  0.62  0.62  0.71  0.79  0.88  0.84  0.80  0.76  0.77  0.78
0.78  0.77  0.76  0.74  0.80  0.85  0.90  0.81  0.72  0.63  0.63  0.63  0.63  0.63  0.62  0.62  0.71  0.79  0.88  0.84  0.80  0.76  0.77  0.78
0.78  0.77  0.76  0.74  0.80  0.85  0.90  0.81  0.72  0.63  0.63  0.63  0.63  0.63  0.62  0.62  0.71  0.79  0.88  0.84  0.80  0.76  0.77  0.78
0.78  0.77  0.76  0.74  0.80  0.85  0.90  0.81  0.72  0.63  0.63  0.63  0.63  0.63  0.62  0.62  0.71  0.79  0.88  0.84  0.80  0.76  0.77  0.78
0.78  0.77  0.76  0.74  0.80  0.85  0.90  0.81  0.72  0.63  0.63  0.63  0.63  0.63  0.62  0.62  0.71  0.79  0.88  0.84  0.80  0.76  0.77  0.78
0.78  0.77  0.76  0.74  0.80  0.85  0.90  0.81  0.72  0.63  0.63  0.63  0.63  0.63  0.62  0.62  0.71  0.79  0.88  0.84  0.80  0.76  0.77  0.78
0.78  0.77  0.76  0.74  0.80  0.85  0.90  0.81  0.72  0.63  0.63  0.63  0.63  0.63  0.62  0.62  0.71  0.79  0.88  0.84  0.80  0.76  0.77  0.78
0.78  0.77  0.76  0.74  0.80  0.85  0.90  0.81  0.72  0.63  0.63  0.63  0.63  0.63  0.62  0.62  0.71  0.79  0.88  0.84  0.80  0.76  0.77  0.78
0.78  0.77  0.76  0.74  0.80  0.85  0.90  0.81  0.72  0.63  0.63  0.63  0.63  0.63  0.62  0.62  0.71  0.79  0.88  0.84  0.80  0.76  0.77  0.78
0.78  0.77  0.76  0.74  0.80  0.85  0.90  0.81  0.72  0.63  0.63  0.63  0.63  0.63  0.62  0.62  0.71  0.79  0.88  0.84  0.80  0.76  0.77  0.78
0.78  0.77  0.76  0.74  0.80  0.85  0.90  0.81  0.72  0.63  0.63  0.63  0.63  0.63  0.62  0.62  0.71  0.79  0.88  0.84  0.80  0.76  0.77  0.78
0.78  0.77  0.76  0.74  0.80  0.85  0.90  0.81  0.72  0.63  0.63  0.63  0.63  0.63  0.62  0.62  0.71  0.79  0.88  0.84  0.80  0.76  0.77  0.78
0.78  0.77  0.76  0.74  0.80  0.85  0.90  0.81  0.72  0.63  0.63  0.63  0.63  0.63  0.62  0.62  0.71  0.79  0.88  0.84  0.80  0.76  0.77  0.78
0.78  0.77  0.76  0.74  0.80  0.85  0.90  0.81  0.72  0.63  0.63  0.63  0.63  0.63  0.62  0.62  0.71  0.79  0.88  0.84  0.80  0.76  0.77  0.78
0.78  0.77  0.76  0.74  0.80  0.85  0.90  0.81  0.72  0.63  0.63  0.63  0.63  0.63  0.62  0.62  0.71  0.79  0.88  0.84  0.80  0.76  0.77  0.78
0.78  0.77  0.76  0.74  0.80  0.85  0.90  0.81  0.72  0.63  0.63  0.63  0.63  0.63  0.62  0.62  0.71  0.79  0.88  0.84  0.80  0.76  0.77  0.78
0.78  0.77  0.76  0.74  0.80  0.85  0.90  0.81  0.72  0.63  0.63  0.63  0.63  0.63  0.62  0.62  0.71  0.79  0.88  0.84  0.80  0.76  0.77  0.78
0.78  0.77  0.76  0.74  0.80  0.85  0.90  0.81  0.72  0.63  0.63  0.63  0.63  0.63  0.62  0.62  0.71  0.79  0.88  0.84  0.80  0.76  0.77  0.78
0.78  0.77  0.76  0.74  0.80  0.85  0.90  0.81  0.72  0.63  0.63  0.63  0.63  0.63  0.62  0.62  0.71  0.79  0.88  0.84  0.80  0.76  0.77  0.78
0.78  0.77  0.76  0.74  0.80  0.85  0.90  0.81  0.72  0.63  0.63  0.63  0.63  0.63  0.62  0.62  0.71  0.79  0.88  0.84  0.80  0.76  0.77  0.78
0.78  0.77  0.76  0.74  0.80  0.85  0.90  0.81  0.72  0.63  0.63  0.63  0.63  0.63  0.62  0.62  0.71  0.79  0.88  0.84  0.80  0.76  0.77  0.78
0.78  0.77  0.76  0.74  0.80  0.85  0.90  0.81  0.72  0.63  0.63  0.63  0.63  0.63  0.62  0.62  0.71  0.79  0.88  0.84  0.80  0.76  0.77  0.78
0.78  0.77  0.76  0.74  0.80  0.85  0.90  0.81  0.72  0.63  0.63  0.63  0.63  0.63  0.62  0.62  0.71  0.79  0.88  0.84  0.80  0.76  0.77  0.78
0.78  0.77  0.76  0.74  0.80  0.85  0.90  0.81  0.72  0.63  0.63  0.63  0.63  0.63  0.62  0.62  0.71  0.79  0.88  0.84  0.80  0.76  0.77  0.78
$ ilon ilat of the cell. lon: 7.97381329, 33.01854519
128   1
$ sizes of the cell in km
    56.525       53.376       51.779       50.729       47.599       42.228       38.552       35.113       32.579       36.108       39.984       45.993       56.525       53.376       51.779       50.729       47.599       42.228       38.552       35.113       32.579       36.108       39.984       45.993
$ mean alpha: 0.730804098957
$ mean beta: 0.804320384435
$alpha by ik, ith
0.74  0.72  0.71  0.69  0.74  0.79  0.84  0.78  0.72  0.66  0.68  0.71  0.74  0.72  0.71  0.69  0.74  0.79  0.84  0.78  0.72  0.66  0.68  0.71
0.74  0.72  0.71  0.69  0.74  0.79  0.84  0.78  0.72  0.66  0.68  0.71  0.74  0.72  0.71  0.69  0.74  0.79  0.84  0.78  0.72  0.66  0.68  0.71
0.74  0.72  0.71  0.69  0.74  0.79  0.84  0.78  0.72  0.66  0.68  0.71  0.74  0.72  0.71  0.69  0.74  0.79  0.84  0.78  0.72  0.66  0.68  0.71
0.74  0.72  0.71  0.69  0.74  0.79  0.84  0.78  0.72  0.66  0.68  0.71  0.74  0.72  0.71  0.69  0.74  0.79  0.84  0.78  0.72  0.66  0.68  0.71
0.74  0.72  0.71  0.69  0.74  0.79  0.84  0.78  0.72  0.66  0.68  0.71  0.74  0.72  0.71  0.69  0.74  0.79  0.84  0.78  0.72  0.66  0.68  0.71
0.74  0.72  0.71  0.69  0.74  0.79  0.84  0.78  0.72  0.66  0.68  0.71  0.74  0.72  0.71  0.69  0.74  0.79  0.84  0.78  0.72  0.66  0.68  0.71
0.74  0.72  0.71  0.69  0.74  0.79  0.84  0.78  0.72  0.66  0.68  0.71  0.74  0.72  0.71  0.69  0.74  0.79  0.84  0.78  0.72  0.66  0.68  0.71
0.74  0.72  0.71  0.69  0.74  0.79  0.84  0.78  0.72  0.66  0.68  0.71  0.74  0.72  0.71  0.69  0.74  0.79  0.84  0.78  0.72  0.66  0.68  0.71
0.74  0.72  0.71  0.69  0.74  0.79  0.84  0.78  0.72  0.66  0.68  0.71  0.74  0.72  0.71  0.69  0.74  0.79  0.84  0.78  0.72  0.66  0.68  0.71
0.74  0.72  0.71  0.69  0.74  0.79  0.84  0.78  0.72  0.66  0.68  0.71  0.74  0.72  0.71  0.69  0.74  0.79  0.84  0.78  0.72  0.66  0.68  0.71
0.74  0.72  0.71  0.69  0.74  0.79  0.84  0.78  0.72  0.66  0.68  0.71  0.74  0.72  0.71  0.69  0.74  0.79  0.84  0.78  0.72  0.66  0.68  0.71
0.74  0.72  0.71  0.69  0.74  0.79  0.84  0.78  0.72  0.66  0.68  0.71  0.74  0.72  0.71  0.69  0.74  0.79  0.84  0.78  0.72  0.66  0.68  0.71
0.74  0.72  0.71  0.69  0.74  0.79  0.84  0.78  0.72  0.66  0.68  0.71  0.74  0.72  0.71  0.69  0.74  0.79  0.84  0.78  0.72  0.66  0.68  0.71
0.74  0.72  0.71  0.69  0.74  0.79  0.84  0.78  0.72  0.66  0.68  0.71  0.74  0.72  0.71  0.69  0.74  0.79  0.84  0.78  0.72  0.66  0.68  0.71
0.74  0.72  0.71  0.69  0.74  0.79  0.84  0.78  0.72  0.66  0.68  0.71  0.74  0.72  0.71  0.69  0.74  0.79  0.84  0.78  0.72  0.66  0.68  0.71
0.74  0.72  0.71  0.69  0.74  0.79  0.84  0.78  0.72  0.66  0.68  0.71  0.74  0.72  0.71  0.69  0.74  0.79  0.84  0.78  0.72  0.66  0.68  0.71
0.74  0.72  0.71  0.69  0.74  0.79  0.84  0.78  0.72  0.66  0.68  0.71  0.74  0.72  0.71  0.69  0.74  0.79  0.84  0.78  0.72  0.66  0.68  0.71
0.74  0.72  0.71  0.69  0.74  0.79  0.84  0.78  0.72  0.66  0.68  0.71  0.74  0.72  0.71  0.69  0.74  0.79  0.84  0.78  0.72  0.66  0.68  0.71
0.74  0.72  0.71  0.69  0.74  0.79  0.84  0.78  0.72  0.66  0.68  0.71  0.74  0.72  0.71  0.69  0.74  0.79  0.84  0.78  0.72  0.66  0.68  0.71
0.74  0.72  0.71  0.69  0.74  0.79  0.84  0.78  0.72  0.66  0.68  0.71  0.74  0.72  0.71  0.69  0.74  0.79  0.84  0.78  0.72  0.66  0.68  0.71
0.74  0.72  0.71  0.69  0.74  0.79  0.84  0.78  0.72  0.66  0.68  0.71  0.74  0.72  0.71  0.69  0.74  0.79  0.84  0.78  0.72  0.66  0.68  0.71
0.74  0.72  0.71  0.69  0.74  0.79  0.84  0.78  0.72  0.66  0.68  0.71  0.74  0.72  0.71  0.69  0.74  0.79  0.84  0.78  0.72  0.66  0.68  0.71
0.74  0.72  0.71  0.69  0.74  0.79  0.84  0.78  0.72  0.66  0.68  0.71  0.74  0.72  0.71  0.69  0.74  0.79  0.84  0.78  0.72  0.66  0.68  0.71
0.74  0.72  0.71  0.69  0.74  0.79  0.84  0.78  0.72  0.66  0.68  0.71  0.74  0.72  0.71  0.69  0.74  0.79  0.84  0.78  0.72  0.66  0.68  0.71
0.74  0.72  0.71  0.69  0.74  0.79  0.84  0.78  0.72  0.66  0.68  0.71  0.74  0.72  0.71  0.69  0.74  0.79  0.84  0.78  0.72  0.66  0.68  0.71
$beta by ik, ith
0.71  0.70  0.69  0.68  0.75  0.82  0.88  0.88  0.88  0.88  0.88  0.88  0.88  0.88  0.89  0.90  0.88  0.86  0.85  0.78  0.72  0.65  0.67  0.69
0.71  0.70  0.69  0.68  0.75  0.82  0.88  0.88  0.88  0.88  0.88  0.88  0.88  0.88  0.89  0.90  0.88  0.86  0.85  0.78  0.72  0.65  0.67  0.69
0.71  0.70  0.69  0.68  0.75  0.82  0.88  0.88  0.88  0.88  0.88  0.88  0.88  0.88  0.89  0.90  0.88  0.86  0.85  0.78  0.72  0.65  0.67  0.69
0.71  0.70  0.69  0.68  0.75  0.82  0.88  0.88  0.88  0.88  0.88  0.88  0.88  0.88  0.89  0.90  0.88  0.86  0.85  0.78  0.72  0.65  0.67  0.69
0.71  0.70  0.69  0.68  0.75  0.82  0.88  0.88  0.88  0.88  0.88  0.88  0.88  0.88  0.89  0.90  0.88  0.86  0.85  0.78  0.72  0.65  0.67  0.69
0.71  0.70  0.69  0.68  0.75  0.82  0.88  0.88  0.88  0.88  0.88  0.88  0.88  0.88  0.89  0.90  0.88  0.86  0.85  0.78  0.72  0.65  0.67  0.69
0.71  0.70  0.69  0.68  0.75  0.82  0.88  0.88  0.88  0.88  0.88  0.88  0.88  0.88  0.89  0.90  0.88  0.86  0.85  0.78  0.72  0.65  0.67  0.69
0.71  0.70  0.69  0.68  0.75  0.82  0.88  0.88  0.88  0.88  0.88  0.88  0.88  0.88  0.89  0.90  0.88  0.86  0.85  0.78  0.72  0.65  0.67  0.69
0.71  0.70  0.69  0.68  0.75  0.82  0.88  0.88  0.88  0.88  0.88  0.88  0.88  0.88  0.89  0.90  0.88  0.86  0.85  0.78  0.72  0.65  0.67  0.69
0.71  0.70  0.69  0.68  0.75  0.82  0.88  0.88  0.88  0.88  0.88  0.88  0.88  0.88  0.89  0.90  0.88  0.86  0.85  0.78  0.72  0.65  0.67  0.69
0.71  0.70  0.69  0.68  0.75  0.82  0.88  0.88  0.88  0.88  0.88  0.88  0.88  0.88  0.89  0.90  0.88  0.86  0.85  0.78  0.72  0.65  0.67  0.69
0.71  0.70  0.69  0.68  0.75  0.82  0.88  0.88  0.88  0.88  0.88  0.88  0.88  0.88  0.89  0.90  0.88  0.86  0.85  0.78  0.72  0.65  0.67  0.69
0.71  0.70  0.69  0.68  0.75  0.82  0.88  0.88  0.88  0.88  0.88  0.88  0.88  0.88  0.89  0.90  0.88  0.86  0.85  0.78  0.72  0.65  0.67  0.69
0.71  0.70  0.69  0.68  0.75  0.82  0.88  0.88  0.88  0.88  0.88  0.88  0.88  0.88  0.89  0.90  0.88  0.86  0.85  0.78  0.72  0.65  0.67  0.69
0.71  0.70  0.69  0.68  0.75  0.82  0.88  0.88  0.88  0.88  0.88  0.88  0.88  0.88  0.89  0.90  0.88  0.86  0.85  0.78  0.72  0.65  0.67  0.69
0.71  0.70  0.69  0.68  0.75  0.82  0.88  0.88  0.88  0.88  0.88  0.88  0.88  0.88  0.89  0.90  0.88  0.86  0.85  0.78  0.72  0.65  0.67  0.69
0.71  0.70  0.69  0.68  0.75  0.82  0.88  0.88  0.88  0.88  0.88  0.88  0.88  0.88  0.89  0.90  0.88  0.86  0.85  0.78  0.72  0.65  0.67  0.69
0.71  0.70  0.69  0.68  0.75  0.82  0.88  0.88  0.88  0.88  0.88  0.88  0.88  0.88  0.89  0.90  0.88  0.86  0.85  0.78  0.72  0.65  0.67  0.69
0.71  0.70  0.69  0.68  0.75  0.82  0.88  0.88  0.88  0.88  0.88  0.88  0.88  0.88  0.89  0.90  0.88  0.86  0.85  0.78  0.72  0.65  0.67  0.69
0.71  0.70  0.69  0.68  0.75  0.82  0.88  0.88  0.88  0.88  0.88  0.88  0.88  0.88  0.89  0.90  0.88  0.86  0.85  0.78  0.72  0.65  0.67  0.69
0.71  0.70  0.69  0.68  0.75  0.82  0.88  0.88  0.88  0.88  0.88  0.88  0.88  0.88  0.89  0.90  0.88  0.86  0.85  0.78  0.72  0.65  0.67  0.69
0.71  0.70  0.69  0.68  0.75  0.82  0.88  0.88  0.88  0.88  0.88  0.88  0.88  0.88  0.89  0.90  0.88  0.86  0.85  0.78  0.72  0.65  0.67  0.69
0.71  0.70  0.69  0.68  0.75  0.82  0.88  0.88  0.88  0.88  0.88  0.88  0.88  0.88  0.89  0.90  0.88  0.86  0.85  0.78  0.72  0.65  0.67  0.69
0.71  0.70  0.69  0.68  0.75  0.82  0.88  0.88  0.88  0.88  0.88  0.88  0.88  0.88  0.89  0.90  0.88  0.86  0.85  0.78  0.72  0.65  0.67  0.69
0.71  0.70  0.69  0.68  0.75  0.82  0.88  0.88  0.88  0.88  0.88  0.88  0.88  0.88  0.89  0.90  0.88  0.86  0.85  0.78  0.72  0.65  0.67  0.69
$ ilon ilat of the cell. lon: 8.25049098, 33.97456151
143   1
$ sizes of the cell in km
    70.040       63.958       57.571       58.839       63.646       67.286       70.674       76.045       80.921       87.229       81.549       75.099       70.040       63.958       57.571       58.839       63.646       67.286       70.674       76.045       80.921       87.229       81.549       75.099
$ mean alpha: 0.979257271228
$ mean beta: 0.98659949
$alpha by ik, ith
0.98  0.98  0.98  0.98  0.98  0.98  0.98  0.98  0.98  0.98  0.98  0.98  0.98  0.98  0.98  0.98  0.98  0.98  0.98  0.98  0.98  0.98  0.98  0.98
0.98  0.98  0.98  0.98  0.98  0.98  0.98  0.98  0.98  0.98  0.98  0.98  0.98  0.98  0.98  0.98  0.98  0.98  0.98  0.98  0.98  0.98  0.98  0.98
0.98  0.98  0.98  0.98  0.98  0.98  0.98  0.98  0.98  0.98  0.98  0.98  0.98  0.98  0.98  0.98  0.98  0.98  0.98  0.98  0.98  0.98  0.98  0.98
0.98  0.98  0.98  0.98  0.98  0.98  0.98  0.98  0.98  0.98  0.98  0.98  0.98  0.98  0.98  0.98  0.98  0.98  0.98  0.98  0.98  0.98  0.98  0.98
0.98  0.98  0.98  0.98  0.98  0.98  0.98  0.98  0.98  0.98  0.98  0.98  0.98  0.98  0.98  0.98  0.98  0.98  0.98  0.98  0.98  0.98  0.98  0.98
0.98  0.98  0.98  0.98  0.98  0.98  0.98  0.98  0.98  0.98  0.98  0.98  0.98  0.98  0.98  0.98  0.98  0.98  0.98  0.98  0.98  0.98  0.98  0.98
0.98  0.98  0.98  0.98  0.98  0.98  0.98  0.98  0.98  0.98  0.98  0.98  0.98  0.98  0.98  0.98  0.98  0.98  0.98  0.98  0.98  0.98  0.98  0.98
0.98  0.98  0.98  0.98  0.98  0.98  0.98  0.98  0.98  0.98  0.98  0.98  0.98  0.98  0.98  0.98  0.98  0.98  0.98  0.98  0.98  0.98  0.98  0.98
0.98  0.98  0.98  0.98  0.98  0.98  0.98  0.98  0.98  0.98  0.98  0.98  0.98  0.98  0.98  0.98  0.98  0.98  0.98  0.98  0.98  0.98  0.98  0.98
0.98  0.98  0.98  0.98  0.98  0.98  0.98  0.98  0.98  0.98  0.98  0.98  0.98  0.98  0.98  0.98  0.98  0.98  0.98  0.98  0.98  0.98  0.98  0.98
0.98  0.98  0.98  0.98  0.98  0.98  0.98  0.98  0.98  0.98  0.98  0.98  0.98  0.98  0.98  0.98  0.98  0.98  0.98  0.98  0.98  0.98  0.98  0.98
0.98  0.98  0.98  0.98  0.98  0.98  0.98  0.98  0.98  0.98  0.98  0.98  0.98  0.98  0.98  0.98  0.98  0.98  0.98  0.98  0.98  0.98  0.98  0.98
0.98  0.98  0.98  0.98  0.98  0.98  0.98  0.98  0.98  0.98  0.98  0.98  0.98  0.98  0.98  0.98  0.98  0.98  0.98  0.98  0.98  0.98  0.98  0.98
0.98  0.98  0.98  0.98  0.98  0.98  0.98  0.98  0.98  0.98  0.98  0.98  0.98  0.98  0.98  0.98  0.98  0.98  0.98  0.98  0.98  0.98  0.98  0.98
0.98  0.98  0.98  0.98  0.98  0.98  0.98  0.98  0.98  0.98  0.98  0.98  0.98  0.98  0.98  0.98  0.98  0.98  0.98  0.98  0.98  0.98  0.98  0.98
0.98  0.98  0.98  0.98  0.98  0.98  0.98  0.98  0.98  0.98  0.98  0.98  0.98  0.98  0.98  0.98  0.98  0.98  0.98  0.98  0.98  0.98  0.98  0.98
0.98  0.98  0.98  0.98  0.98  0.98  0.98  0.98  0.98  0.98  0.98  0.98  0.98  0.98  0.98  0.98  0.98  0.98  0.98  0.98  0.98  0.98  0.98  0.98
0.98  0.98  0.98  0.98  0.98  0.98  0.98  0.98  0.98  0.98  0.98  0.98  0.98  0.98  0.98  0.98  0.98  0.98  0.98  0.98  0.98  0.98  0.98  0.98
0.98  0.98  0.98  0.98  0.98  0.98  0.98  0.98  0.98  0.98  0.98  0.98  0.98  0.98  0.98  0.98  0.98  0.98  0.98  0.98  0.98  0.98  0.98  0.98
0.98  0.98  0.98  0.98  0.98  0.98  0.98  0.98  0.98  0.98  0.98  0.98  0.98  0.98  0.98  0.98  0.98  0.98  0.98  0.98  0.98  0.98  0.98  0.98
0.98  0.98  0.98  0.98  0.98  0.98  0.98  0.98  0.98  0.98  0.98  0.98  0.98  0.98  0.98  0.98  0.98  0.98  0.98  0.98  0.98  0.98  0.98  0.98
0.98  0.98  0.98  0.98  0.98  0.98  0.98  0.98  0.98  0.98  0.98  0.98  0.98  0.98  0.98  0.98  0.98  0.98  0.98  0.98  0.98  0.98  0.98  0.98
0.98  0.98  0.98  0.98  0.98  0.98  0.98  0.98  0.98  0.98  0.98  0.98  0.98  0.98  0.98  0.98  0.98  0.98  0.98  0.98  0.98  0.98  0.98  0.98
0.98  0.98  0.98  0.98  0.98  0.98  0.98  0.98  0.98  0.98  0.98  0.98  0.98  0.98  0.98  0.98  0.98  0.98  0.98  0.98  0.98  0.98  0.98  0.98
0.98  0.98  0.98  0.98  0.98  0.98  0.98  0.98  0.98  0.98  0.98  0.98  0.98  0.98  0.98  0.98  0.98  0.98  0.98  0.98  0.98  0.98  0.98  0.98
$beta by ik, ith
0.97  0.97  0.97  0.97  0.98  0.99  0.99  0.99  0.99  1.00  1.00  0.99  0.99  1.00  1.00  1.00  0.99  0.99  0.99  0.98  0.98  0.98  0.98  0.98
0.97  0.97  0.97  0.97  0.98  0.99  0.99  0.99  0.99  1.00  1.00  0.99  0.99  1.00  1.00  1.00  0.99  0.99  0.99  0.98  0.98  0.98  0.98  0.98
0.97  0.97  0.97  0.97  0.98  0.99  0.99  0.99  0.99  1.00  1.00  0.99  0.99  1.00  1.00  1.00  0.99  0.99  0.99  0.98  0.98  0.98  0.98  0.98
0.97  0.97  0.97  0.97  0.98  0.99  0.99  0.99  0.99  1.00  1.00  0.99  0.99  1.00  1.00  1.00  0.99  0.99  0.99  0.98  0.98  0.98  0.98  0.98
0.97  0.97  0.97  0.97  0.98  0.99  0.99  0.99  0.99  1.00  1.00  0.99  0.99  1.00  1.00  1.00  0.99  0.99  0.99  0.98  0.98  0.98  0.98  0.98
0.97  0.97  0.97  0.97  0.98  0.99  0.99  0.99  0.99  1.00  1.00  0.99  0.99  1.00  1.00  1.00  0.99  0.99  0.99  0.98  0.98  0.98  0.98  0.98
0.97  0.97  0.97  0.97  0.98  0.99  0.99  0.99  0.99  1.00  1.00  0.99  0.99  1.00  1.00  1.00  0.99  0.99  0.99  0.98  0.98  0.98  0.98  0.98
0.97  0.97  0.97  0.97  0.98  0.99  0.99  0.99  0.99  1.00  1.00  0.99  0.99  1.00  1.00  1.00  0.99  0.99  0.99  0.98  0.98  0.98  0.98  0.98
0.97  0.97  0.97  0.97  0.98  0.99  0.99  0.99  0.99  1.00  1.00  0.99  0.99  1.00  1.00  1.00  0.99  0.99  0.99  0.98  0.98  0.98  0.98  0.98
0.97  0.97  0.97  0.97  0.98  0.99  0.99  0.99  0.99  1.00  1.00  0.99  0.99  1.00  1.00  1.00  0.99  0.99  0.99  0.98  0.98  0.98  0.98  0.98
0.97  0.97  0.97  0.97  0.98  0.99  0.99  0.99  0.99  1.00  1.00  0.99  0.99  1.00  1.00  1.00  0.99  0.99  0.99  0.98  0.98  0.98  0.98  0.98
0.97  0.97  0.97  0.97  0.98  0.99  0.99  0.99  0.99  1.00  1.00  0.99  0.99  1.00  1.00  1.00  0.99  0.99  0.99  0.98  0.98  0.98  0.98  0.98
0.97  0.97  0.97  0.97  0.98  0.99  0.99  0.99  0.99  1.00  1.00  0.99  0.99  1.00  1.00  1.00  0.99  0.99  0.99  0.98  0.98  0.98  0.98  0.98
0.97  0.97  0.97  0.97  0.98  0.99  0.99  0.99  0.99  1.00  1.00  0.99  0.99  1.00  1.00  1.00  0.99  0.99  0.99  0.98  0.98  0.98  0.98  0.98
0.97  0.97  0.97  0.97  0.98  0.99  0.99  0.99  0.99  1.00  1.00  0.99  0.99  1.00  1.00  1.00  0.99  0.99  0.99  0.98  0.98  0.98  0.98  0.98
0.97  0.97  0.97  0.97  0.98  0.99  0.99  0.99  0.99  1.00  1.00  0.99  0.99  1.00  1.00  1.00  0.99  0.99  0.99  0.98  0.98  0.98  0.98  0.98
0.97  0.97  0.97  0.97  0.98  0.99  0.99  0.99  0.99  1.00  1.00  0.99  0.99  1.00  1.00  1.00  0.99  0.99  0.99  0.98  0.98  0.98  0.98  0.98
0.97  0.97  0.97  0.97  0.98  0.99  0.99  0.99  0.99  1.00  1.00  0.99  0.99  1.00  1.00  1.00  0.99  0.99  0.99  0.98  0.98  0.98  0.98  0.98
0.97  0.97  0.97  0.97  0.98  0.99  0.99  0.99  0.99  1.00  1.00  0.99  0.99  1.00  1.00  1.00  0.99  0.99  0.99  0.98  0.98  0.98  0.98  0.98
0.97  0.97  0.97  0.97  0.98  0.99  0.99  0.99  0.99  1.00  1.00  0.99  0.99  1.00  1.00  1.00  0.99  0.99  0.99  0.98  0.98  0.98  0.98  0.98
0.97  0.97  0.97  0.97  0.98  0.99  0.99  0.99  0.99  1.00  1.00  0.99  0.99  1.00  1.00  1.00  0.99  0.99  0.99  0.98  0.98  0.98  0.98  0.98
0.97  0.97  0.97  0.97  0.98  0.99  0.99  0.99  0.99  1.00  1.00  0.99  0.99  1.00  1.00  1.00  0.99  0.99  0.99  0.98  0.98  0.98  0.98  0.98
0.97  0.97  0.97  0.97  0.98  0.99  0.99  0.99  0.99  1.00  1.00  0.99  0.99  1.00  1.00  1.00  0.99  0.99  0.99  0.98  0.98  0.98  0.98  0.98
0.97  0.97  0.97  0.97  0.98  0.99  0.99  0.99  0.99  1.00  1.00  0.99  0.99  1.00  1.00  1.00  0.99  0.99  0.99  0.98  0.98  0.98  0.98  0.98
0.97  0.97  0.97  0.97  0.98  0.99  0.99  0.99  0.99  1.00  1.00  0.99  0.99  1.00  1.00  1.00  0.99  0.99  0.99  0.98  0.98  0.98  0.98  0.98
$ ilon ilat of the cell. lon: 7.79908596, 33.78941788
144   1
$ sizes of the cell in km
    75.269       70.904       66.806       65.300       65.160       64.704       64.908       68.597       71.689       75.667       77.617       76.572       75.269       70.904       66.806       65.300       65.160       64.704       64.908       68.597       71.689       75.667       77.617       76.572
$ mean alpha: 0.533079106701
$ mean beta: 0.685112056026
$alpha by ik, ith
0.49  0.48  0.46  0.45  0.59  0.74  0.88  0.69  0.50  0.31  0.37  0.43  0.49  0.48  0.46  0.45  0.59  0.74  0.88  0.69  0.50  0.31  0.37  0.43
0.49  0.48  0.46  0.45  0.59  0.74  0.88  0.69  0.50  0.31  0.37  0.43  0.49  0.48  0.46  0.45  0.59  0.74  0.88  0.69  0.50  0.31  0.37  0.43
0.49  0.48  0.46  0.45  0.59  0.74  0.88  0.69  0.50  0.31  0.37  0.43  0.49  0.48  0.46  0.45  0.59  0.74  0.88  0.69  0.50  0.31  0.37  0.43
0.49  0.48  0.46  0.45  0.59  0.74  0.88  0.69  0.50  0.31  0.37  0.43  0.49  0.48  0.46  0.45  0.59  0.74  0.88  0.69  0.50  0.31  0.37  0.43
0.49  0.48  0.46  0.45  0.59  0.74  0.88  0.69  0.50  0.31  0.37  0.43  0.49  0.48  0.46  0.45  0.59  0.74  0.88  0.69  0.50  0.31  0.37  0.43
0.49  0.48  0.46  0.45  0.59  0.74  0.88  0.69  0.50  0.31  0.37  0.43  0.49  0.48  0.46  0.45  0.59  0.74  0.88  0.69  0.50  0.31  0.37  0.43
0.49  0.48  0.46  0.45  0.59  0.74  0.88  0.69  0.50  0.31  0.37  0.43  0.49  0.48  0.46  0.45  0.59  0.74  0.88  0.69  0.50  0.31  0.37  0.43
0.49  0.48  0.46  0.45  0.59  0.74  0.88  0.69  0.50  0.31  0.37  0.43  0.49  0.48  0.46  0.45  0.59  0.74  0.88  0.69  0.50  0.31  0.37  0.43
0.49  0.48  0.46  0.45  0.59  0.74  0.88  0.69  0.50  0.31  0.37  0.43  0.49  0.48  0.46  0.45  0.59  0.74  0.88  0.69  0.50  0.31  0.37  0.43
0.49  0.48  0.46  0.45  0.59  0.74  0.88  0.69  0.50  0.31  0.37  0.43  0.49  0.48  0.46  0.45  0.59  0.74  0.88  0.69  0.50  0.31  0.37  0.43
0.49  0.48  0.46  0.45  0.59  0.74  0.88  0.69  0.50  0.31  0.37  0.43  0.49  0.48  0.46  0.45  0.59  0.74  0.88  0.69  0.50  0.31  0.37  0.43
0.49  0.48  0.46  0.45  0.59  0.74  0.88  0.69  0.50  0.31  0.37  0.43  0.49  0.48  0.46  0.45  0.59  0.74  0.88  0.69  0.50  0.31  0.37  0.43
0.49  0.48  0.46  0.45  0.59  0.74  0.88  0.69  0.50  0.31  0.37  0.43  0.49  0.48  0.46  0.45  0.59  0.74  0.88  0.69  0.50  0.31  0.37  0.43
0.49  0.48  0.46  0.45  0.59  0.74  0.88  0.69  0.50  0.31  0.37  0.43  0.49  0.48  0.46  0.45  0.59  0.74  0.88  0.69  0.50  0.31  0.37  0.43
0.49  0.48  0.46  0.45  0.59  0.74  0.88  0.69  0.50  0.31  0.37  0.43  0.49  0.48  0.46  0.45  0.59  0.74  0.88  0.69  0.50  0.31  0.37  0.43
0.49  0.48  0.46  0.45  0.59  0.74  0.88  0.69  0.50  0.31  0.37  0.43  0.49  0.48  0.46  0.45  0.59  0.74  0.88  0.69  0.50  0.31  0.37  0.43
0.49  0.48  0.46  0.45  0.59  0.74  0.88  0.69  0.50  0.31  0.37  0.43  0.49  0.48  0.46  0.45  0.59  0.74  0.88  0.69  0.50  0.31  0.37  0.43
0.49  0.48  0.46  0.45  0.59  0.74  0.88  0.69  0.50  0.31  0.37  0.43  0.49  0.48  0.46  0.45  0.59  0.74  0.88  0.69  0.50  0.31  0.37  0.43
0.49  0.48  0.46  0.45  0.59  0.74  0.88  0.69  0.50  0.31  0.37  0.43  0.49  0.48  0.46  0.45  0.59  0.74  0.88  0.69  0.50  0.31  0.37  0.43
0.49  0.48  0.46  0.45  0.59  0.74  0.88  0.69  0.50  0.31  0.37  0.43  0.49  0.48  0.46  0.45  0.59  0.74  0.88  0.69  0.50  0.31  0.37  0.43
0.49  0.48  0.46  0.45  0.59  0.74  0.88  0.69  0.50  0.31  0.37  0.43  0.49  0.48  0.46  0.45  0.59  0.74  0.88  0.69  0.50  0.31  0.37  0.43
0.49  0.48  0.46  0.45  0.59  0.74  0.88  0.69  0.50  0.31  0.37  0.43  0.49  0.48  0.46  0.45  0.59  0.74  0.88  0.69  0.50  0.31  0.37  0.43
0.49  0.48  0.46  0.45  0.59  0.74  0.88  0.69  0.50  0.31  0.37  0.43  0.49  0.48  0.46  0.45  0.59  0.74  0.88  0.69  0.50  0.31  0.37  0.43
0.49  0.48  0.46  0.45  0.59  0.74  0.88  0.69  0.50  0.31  0.37  0.43  0.49  0.48  0.46  0.45  0.59  0.74  0.88  0.69  0.50  0.31  0.37  0.43
0.49  0.48  0.46  0.45  0.59  0.74  0.88  0.69  0.50  0.31  0.37  0.43  0.49  0.48  0.46  0.45  0.59  0.74  0.88  0.69  0.50  0.31  0.37  0.43
$beta by ik, ith
0.69  0.70  0.71  0.71  0.77  0.83  0.89  0.79  0.68  0.57  0.59  0.61  0.62  0.61  0.60  0.59  0.68  0.77  0.86  0.75  0.65  0.54  0.59  0.64
0.69  0.70  0.71  0.71  0.77  0.83  0.89  0.79  0.68  0.57  0.59  0.61  0.62  0.61  0.60  0.59  0.68  0.77  0.86  0.75  0.65  0.54  0.59  0.64
0.69  0.70  0.71  0.71  0.77  0.83  0.89  0.79  0.68  0.57  0.59  0.61  0.62  0.61  0.60  0.59  0.68  0.77  0.86  0.75  0.65  0.54  0.59  0.64
0.69  0.70  0.71  0.71  0.77  0.83  0.89  0.79  0.68  0.57  0.59  0.61  0.62  0.61  0.60  0.59  0.68  0.77  0.86  0.75  0.65  0.54  0.59  0.64
0.69  0.70  0.71  0.71  0.77  0.83  0.89  0.79  0.68  0.57  0.59  0.61  0.62  0.61  0.60  0.59  0.68  0.77  0.86  0.75  0.65  0.54  0.59  0.64
0.69  0.70  0.71  0.71  0.77  0.83  0.89  0.79  0.68  0.57  0.59  0.61  0.62  0.61  0.60  0.59  0.68  0.77  0.86  0.75  0.65  0.54  0.59  0.64
0.69  0.70  0.71  0.71  0.77  0.83  0.89  0.79  0.68  0.57  0.59  0.61  0.62  0.61  0.60  0.59  0.68  0.77  0.86  0.75  0.65  0.54  0.59  0.64
0.69  0.70  0.71  0.71  0.77  0.83  0.89  0.79  0.68  0.57  0.59  0.61  0.62  0.61  0.60  0.59  0.68  0.77  0.86  0.75  0.65  0.54  0.59  0.64
0.69  0.70  0.71  0.71  0.77  0.83  0.89  0.79  0.68  0.57  0.59  0.61  0.62  0.61  0.60  0.59  0.68  0.77  0.86  0.75  0.65  0.54  0.59  0.64
0.69  0.70  0.71  0.71  0.77  0.83  0.89  0.79  0.68  0.57  0.59  0.61  0.62  0.61  0.60  0.59  0.68  0.77  0.86  0.75  0.65  0.54  0.59  0.64
0.69  0.70  0.71  0.71  0.77  0.83  0.89  0.79  0.68  0.57  0.59  0.61  0.62  0.61  0.60  0.59  0.68  0.77  0.86  0.75  0.65  0.54  0.59  0.64
0.69  0.70  0.71  0.71  0.77  0.83  0.89  0.79  0.68  0.57  0.59  0.61  0.62  0.61  0.60  0.59  0.68  0.77  0.86  0.75  0.65  0.54  0.59  0.64
0.69  0.70  0.71  0.71  0.77  0.83  0.89  0.79  0.68  0.57  0.59  0.61  0.62  0.61  0.60  0.59  0.68  0.77  0.86  0.75  0.65  0.54  0.59  0.64
0.69  0.70  0.71  0.71  0.77  0.83  0.89  0.79  0.68  0.57  0.59  0.61  0.62  0.61  0.60  0.59  0.68  0.77  0.86  0.75  0.65  0.54  0.59  0.64
0.69  0.70  0.71  0.71  0.77  0.83  0.89  0.79  0.68  0.57  0.59  0.61  0.62  0.61  0.60  0.59  0.68  0.77  0.86  0.75  0.65  0.54  0.59  0.64
0.69  0.70  0.71  0.71  0.77  0.83  0.89  0.79  0.68  0.57  0.59  0.61  0.62  0.61  0.60  0.59  0.68  0.77  0.86  0.75  0.65  0.54  0.59  0.64
0.69  0.70  0.71  0.71  0.77  0.83  0.89  0.79  0.68  0.57  0.59  0.61  0.62  0.61  0.60  0.59  0.68  0.77  0.86  0.75  0.65  0.54  0.59  0.64
0.69  0.70  0.71  0.71  0.77  0.83  0.89  0.79  0.68  0.57  0.59  0.61  0.62  0.61  0.60  0.59  0.68  0.77  0.86  0.75  0.65  0.54  0.59  0.64
0.69  0.70  0.71  0.71  0.77  0.83  0.89  0.79  0.68  0.57  0.59  0.61  0.62  0.61  0.60  0.59  0.68  0.77  0.86  0.75  0.65  0.54  0.59  0.64
0.69  0.70  0.71  0.71  0.77  0.83  0.89  0.79  0.68  0.57  0.59  0.61  0.62  0.61  0.60  0.59  0.68  0.77  0.86  0.75  0.65  0.54  0.59  0.64
0.69  0.70  0.71  0.71  0.77  0.83  0.89  0.79  0.68  0.57  0.59  0.61  0.62  0.61  0.60  0.59  0.68  0.77  0.86  0.75  0.65  0.54  0.59  0.64
0.69  0.70  0.71  0.71  0.77  0.83  0.89  0.79  0.68  0.57  0.59  0.61  0.62  0.61  0.60  0.59  0.68  0.77  0.86  0.75  0.65  0.54  0.59  0.64
0.69  0.70  0.71  0.71  0.77  0.83  0.89  0.79  0.68  0.57  0.59  0.61  0.62  0.61  0.60  0.59  0.68  0.77  0.86  0.75  0.65  0.54  0.59  0.64
0.69  0.70  0.71  0.71  0.77  0.83  0.89  0.79  0.68  0.57  0.59  0.61  0.62  0.61  0.60  0.59  0.68  0.77  0.86  0.75  0.65  0.54  0.59  0.64
0.69  0.70  0.71  0.71  0.77  0.83  0.89  0.79  0.68  0.57  0.59  0.61  0.62  0.61  0.60  0.59  0.68  0.77  0.86  0.75  0.65  0.54  0.59  0.64
$ ilon ilat of the cell. lon: 7.60937609, 34.53562104
150   1
$ sizes of the cell in km
    69.388       68.553       71.895       76.260       80.915       85.658       88.300       88.875       87.732       85.615       80.489       73.445       69.388       68.553       71.895       76.260       80.915       85.658       88.300       88.875       87.732       85.615       80.489       73.445
$ mean alpha: 0.523050823374
$ mean beta: 0.681947073973
$alpha by ik, ith
0.58  0.51  0.45  0.38  0.54  0.70  0.86  0.66  0.47  0.27  0.37  0.47  0.58  0.51  0.45  0.38  0.54  0.70  0.86  0.66  0.47  0.27  0.37  0.47
0.58  0.51  0.45  0.38  0.54  0.70  0.86  0.66  0.47  0.27  0.37  0.47  0.58  0.51  0.45  0.38  0.54  0.70  0.86  0.66  0.47  0.27  0.37  0.47
0.58  0.51  0.45  0.38  0.54  0.70  0.86  0.66  0.47  0.27  0.37  0.47  0.58  0.51  0.45  0.38  0.54  0.70  0.86  0.66  0.47  0.27  0.37  0.47
0.58  0.51  0.45  0.38  0.54  0.70  0.86  0.66  0.47  0.27  0.37  0.47  0.58  0.51  0.45  0.38  0.54  0.70  0.86  0.66  0.47  0.27  0.37  0.47
0.58  0.51  0.45  0.38  0.54  0.70  0.86  0.66  0.47  0.27  0.37  0.47  0.58  0.51  0.45  0.38  0.54  0.70  0.86  0.66  0.47  0.27  0.37  0.47
0.58  0.51  0.45  0.38  0.54  0.70  0.86  0.66  0.47  0.27  0.37  0.47  0.58  0.51  0.45  0.38  0.54  0.70  0.86  0.66  0.47  0.27  0.37  0.47
0.58  0.51  0.45  0.38  0.54  0.70  0.86  0.66  0.47  0.27  0.37  0.47  0.58  0.51  0.45  0.38  0.54  0.70  0.86  0.66  0.47  0.27  0.37  0.47
0.58  0.51  0.45  0.38  0.54  0.70  0.86  0.66  0.47  0.27  0.37  0.47  0.58  0.51  0.45  0.38  0.54  0.70  0.86  0.66  0.47  0.27  0.37  0.47
0.58  0.51  0.45  0.38  0.54  0.70  0.86  0.66  0.47  0.27  0.37  0.47  0.58  0.51  0.45  0.38  0.54  0.70  0.86  0.66  0.47  0.27  0.37  0.47
0.58  0.51  0.45  0.38  0.54  0.70  0.86  0.66  0.47  0.27  0.37  0.47  0.58  0.51  0.45  0.38  0.54  0.70  0.86  0.66  0.47  0.27  0.37  0.47
0.58  0.51  0.45  0.38  0.54  0.70  0.86  0.66  0.47  0.27  0.37  0.47  0.58  0.51  0.45  0.38  0.54  0.70  0.86  0.66  0.47  0.27  0.37  0.47
0.58  0.51  0.45  0.38  0.54  0.70  0.86  0.66  0.47  0.27  0.37  0.47  0.58  0.51  0.45  0.38  0.54  0.70  0.86  0.66  0.47  0.27  0.37  0.47
0.58  0.51  0.45  0.38  0.54  0.70  0.86  0.66  0.47  0.27  0.37  0.47  0.58  0.51  0.45  0.38  0.54  0.70  0.86  0.66  0.47  0.27  0.37  0.47
0.58  0.51  0.45  0.38  0.54  0.70  0.86  0.66  0.47  0.27  0.37  0.47  0.58  0.51  0.45  0.38  0.54  0.70  0.86  0.66  0.47  0.27  0.37  0.47
0.58  0.51  0.45  0.38  0.54  0.70  0.86  0.66  0.47  0.27  0.37  0.47  0.58  0.51  0.45  0.38  0.54  0.70  0.86  0.66  0.47  0.27  0.37  0.47
0.58  0.51  0.45  0.38  0.54  0.70  0.86  0.66  0.47  0.27  0.37  0.47  0.58  0.51  0.45  0.38  0.54  0.70  0.86  0.66  0.47  0.27  0.37  0.47
0.58  0.51  0.45  0.38  0.54  0.70  0.86  0.66  0.47  0.27  0.37  0.47  0.58  0.51  0.45  0.38  0.54  0.70  0.86  0.66  0.47  0.27  0.37  0.47
0.58  0.51  0.45  0.38  0.54  0.70  0.86  0.66  0.47  0.27  0.37  0.47  0.58  0.51  0.45  0.38  0.54  0.70  0.86  0.66  0.47  0.27  0.37  0.47
0.58  0.51  0.45  0.38  0.54  0.70  0.86  0.66  0.47  0.27  0.37  0.47  0.58  0.51  0.45  0.38  0.54  0.70  0.86  0.66  0.47  0.27  0.37  0.47
0.58  0.51  0.45  0.38  0.54  0.70  0.86  0.66  0.47  0.27  0.37  0.47  0.58  0.51  0.45  0.38  0.54  0.70  0.86  0.66  0.47  0.27  0.37  0.47
0.58  0.51  0.45  0.38  0.54  0.70  0.86  0.66  0.47  0.27  0.37  0.47  0.58  0.51  0.45  0.38  0.54  0.70  0.86  0.66  0.47  0.27  0.37  0.47
0.58  0.51  0.45  0.38  0.54  0.70  0.86  0.66  0.47  0.27  0.37  0.47  0.58  0.51  0.45  0.38  0.54  0.70  0.86  0.66  0.47  0.27  0.37  0.47
0.58  0.51  0.45  0.38  0.54  0.70  0.86  0.66  0.47  0.27  0.37  0.47  0.58  0.51  0.45  0.38  0.54  0.70  0.86  0.66  0.47  0.27  0.37  0.47
0.58  0.51  0.45  0.38  0.54  0.70  0.86  0.66  0.47  0.27  0.37  0.47  0.58  0.51  0.45  0.38  0.54  0.70  0.86  0.66  0.47  0.27  0.37  0.47
0.58  0.51  0.45  0.38  0.54  0.70  0.86  0.66  0.47  0.27  0.37  0.47  0.58  0.51  0.45  0.38  0.54  0.70  0.86  0.66  0.47  0.27  0.37  0.47
$beta by ik, ith
0.84  0.79  0.75  0.71  0.76  0.81  0.86  0.70  0.54  0.37  0.45  0.53  0.61  0.58  0.54  0.51  0.63  0.74  0.86  0.81  0.75  0.70  0.75  0.79
0.84  0.79  0.75  0.71  0.76  0.81  0.86  0.70  0.54  0.37  0.45  0.53  0.61  0.58  0.54  0.51  0.63  0.74  0.86  0.81  0.75  0.70  0.75  0.79
0.84  0.79  0.75  0.71  0.76  0.81  0.86  0.70  0.54  0.37  0.45  0.53  0.61  0.58  0.54  0.51  0.63  0.74  0.86  0.81  0.75  0.70  0.75  0.79
0.84  0.79  0.75  0.71  0.76  0.81  0.86  0.70  0.54  0.37  0.45  0.53  0.61  0.58  0.54  0.51  0.63  0.74  0.86  0.81  0.75  0.70  0.75  0.79
0.84  0.79  0.75  0.71  0.76  0.81  0.86  0.70  0.54  0.37  0.45  0.53  0.61  0.58  0.54  0.51  0.63  0.74  0.86  0.81  0.75  0.70  0.75  0.79
0.84  0.79  0.75  0.71  0.76  0.81  0.86  0.70  0.54  0.37  0.45  0.53  0.61  0.58  0.54  0.51  0.63  0.74  0.86  0.81  0.75  0.70  0.75  0.79
0.84  0.79  0.75  0.71  0.76  0.81  0.86  0.70  0.54  0.37  0.45  0.53  0.61  0.58  0.54  0.51  0.63  0.74  0.86  0.81  0.75  0.70  0.75  0.79
0.84  0.79  0.75  0.71  0.76  0.81  0.86  0.70  0.54  0.37  0.45  0.53  0.61  0.58  0.54  0.51  0.63  0.74  0.86  0.81  0.75  0.70  0.75  0.79
0.84  0.79  0.75  0.71  0.76  0.81  0.86  0.70  0.54  0.37  0.45  0.53  0.61  0.58  0.54  0.51  0.63  0.74  0.86  0.81  0.75  0.70  0.75  0.79
0.84  0.79  0.75  0.71  0.76  0.81  0.86  0.70  0.54  0.37  0.45  0.53  0.61  0.58  0.54  0.51  0.63  0.74  0.86  0.81  0.75  0.70  0.75  0.79
0.84  0.79  0.75  0.71  0.76  0.81  0.86  0.70  0.54  0.37  0.45  0.53  0.61  0.58  0.54  0.51  0.63  0.74  0.86  0.81  0.75  0.70  0.75  0.79
0.84  0.79  0.75  0.71  0.76  0.81  0.86  0.70  0.54  0.37  0.45  0.53  0.61  0.58  0.54  0.51  0.63  0.74  0.86  0.81  0.75  0.70  0.75  0.79
0.84  0.79  0.75  0.71  0.76  0.81  0.86  0.70  0.54  0.37  0.45  0.53  0.61  0.58  0.54  0.51  0.63  0.74  0.86  0.81  0.75  0.70  0.75  0.79
0.84  0.79  0.75  0.71  0.76  0.81  0.86  0.70  0.54  0.37  0.45  0.53  0.61  0.58  0.54  0.51  0.63  0.74  0.86  0.81  0.75  0.70  0.75  0.79
0.84  0.79  0.75  0.71  0.76  0.81  0.86  0.70  0.54  0.37  0.45  0.53  0.61  0.58  0.54  0.51  0.63  0.74  0.86  0.81  0.75  0.70  0.75  0.79
0.84  0.79  0.75  0.71  0.76  0.81  0.86  0.70  0.54  0.37  0.45  0.53  0.61  0.58  0.54  0.51  0.63  0.74  0.86  0.81  0.75  0.70  0.75  0.79
0.84  0.79  0.75  0.71  0.76  0.81  0.86  0.70  0.54  0.37  0.45  0.53  0.61  0.58  0.54  0.51  0.63  0.74  0.86  0.81  0.75  0.70  0.75  0.79
0.84  0.79  0.75  0.71  0.76  0.81  0.86  0.70  0.54  0.37  0.45  0.53  0.61  0.58  0.54  0.51  0.63  0.74  0.86  0.81  0.75  0.70  0.75  0.79
0.84  0.79  0.75  0.71  0.76  0.81  0.86  0.70  0.54  0.37  0.45  0.53  0.61  0.58  0.54  0.51  0.63  0.74  0.86  0.81  0.75  0.70  0.75  0.79
0.84  0.79  0.75  0.71  0.76  0.81  0.86  0.70  0.54  0.37  0.45  0.53  0.61  0.58  0.54  0.51  0.63  0.74  0.86  0.81  0.75  0.70  0.75  0.79
0.84  0.79  0.75  0.71  0.76  0.81  0.86  0.70  0.54  0.37  0.45  0.53  0.61  0.58  0.54  0.51  0.63  0.74  0.86  0.81  0.75  0.70  0.75  0.79
0.84  0.79  0.75  0.71  0.76  0.81  0.86  0.70  0.54  0.37  0.45  0.53  0.61  0.58  0.54  0.51  0.63  0.74  0.86  0.81  0.75  0.70  0.75  0.79
0.84  0.79  0.75  0.71  0.76  0.81  0.86  0.70  0.54  0.37  0.45  0.53  0.61  0.58  0.54  0.51  0.63  0.74  0.86  0.81  0.75  0.70  0.75  0.79
0.84  0.79  0.75  0.71  0.76  0.81  0.86  0.70  0.54  0.37  0.45  0.53  0.61  0.58  0.54  0.51  0.63  0.74  0.86  0.81  0.75  0.70  0.75  0.79
0.84  0.79  0.75  0.71  0.76  0.81  0.86  0.70  0.54  0.37  0.45  0.53  0.61  0.58  0.54  0.51  0.63  0.74  0.86  0.81  0.75  0.70  0.75  0.79
$ ilon ilat of the cell. lon: 7.60143733, 35.53920776
153   1
$ sizes of the cell in km
    58.709       57.368       57.000       58.051       59.195       60.657       62.389       62.947       62.868       63.891       63.561       61.584       58.709       57.368       57.000       58.051       59.195       60.657       62.389       62.947       62.868       63.891       63.561       61.584
$ mean alpha: 0.610039798807
$ mean beta: 0.727150299326
$alpha by ik, ith
0.63  0.58  0.54  0.49  0.61  0.73  0.84  0.72  0.60  0.47  0.53  0.58  0.63  0.58  0.54  0.49  0.61  0.73  0.84  0.72  0.60  0.47  0.53  0.58
0.63  0.58  0.54  0.49  0.61  0.73  0.84  0.72  0.60  0.47  0.53  0.58  0.63  0.58  0.54  0.49  0.61  0.73  0.84  0.72  0.60  0.47  0.53  0.58
0.63  0.58  0.54  0.49  0.61  0.73  0.84  0.72  0.60  0.47  0.53  0.58  0.63  0.58  0.54  0.49  0.61  0.73  0.84  0.72  0.60  0.47  0.53  0.58
0.63  0.58  0.54  0.49  0.61  0.73  0.84  0.72  0.60  0.47  0.53  0.58  0.63  0.58  0.54  0.49  0.61  0.73  0.84  0.72  0.60  0.47  0.53  0.58
0.63  0.58  0.54  0.49  0.61  0.73  0.84  0.72  0.60  0.47  0.53  0.58  0.63  0.58  0.54  0.49  0.61  0.73  0.84  0.72  0.60  0.47  0.53  0.58
0.63  0.58  0.54  0.49  0.61  0.73  0.84  0.72  0.60  0.47  0.53  0.58  0.63  0.58  0.54  0.49  0.61  0.73  0.84  0.72  0.60  0.47  0.53  0.58
0.63  0.58  0.54  0.49  0.61  0.73  0.84  0.72  0.60  0.47  0.53  0.58  0.63  0.58  0.54  0.49  0.61  0.73  0.84  0.72  0.60  0.47  0.53  0.58
0.63  0.58  0.54  0.49  0.61  0.73  0.84  0.72  0.60  0.47  0.53  0.58  0.63  0.58  0.54  0.49  0.61  0.73  0.84  0.72  0.60  0.47  0.53  0.58
0.63  0.58  0.54  0.49  0.61  0.73  0.84  0.72  0.60  0.47  0.53  0.58  0.63  0.58  0.54  0.49  0.61  0.73  0.84  0.72  0.60  0.47  0.53  0.58
0.63  0.58  0.54  0.49  0.61  0.73  0.84  0.72  0.60  0.47  0.53  0.58  0.63  0.58  0.54  0.49  0.61  0.73  0.84  0.72  0.60  0.47  0.53  0.58
0.63  0.58  0.54  0.49  0.61  0.73  0.84  0.72  0.60  0.47  0.53  0.58  0.63  0.58  0.54  0.49  0.61  0.73  0.84  0.72  0.60  0.47  0.53  0.58
0.63  0.58  0.54  0.49  0.61  0.73  0.84  0.72  0.60  0.47  0.53  0.58  0.63  0.58  0.54  0.49  0.61  0.73  0.84  0.72  0.60  0.47  0.53  0.58
0.63  0.58  0.54  0.49  0.61  0.73  0.84  0.72  0.60  0.47  0.53  0.58  0.63  0.58  0.54  0.49  0.61  0.73  0.84  0.72  0.60  0.47  0.53  0.58
0.63  0.58  0.54  0.49  0.61  0.73  0.84  0.72  0.60  0.47  0.53  0.58  0.63  0.58  0.54  0.49  0.61  0.73  0.84  0.72  0.60  0.47  0.53  0.58
0.63  0.58  0.54  0.49  0.61  0.73  0.84  0.72  0.60  0.47  0.53  0.58  0.63  0.58  0.54  0.49  0.61  0.73  0.84  0.72  0.60  0.47  0.53  0.58
0.63  0.58  0.54  0.49  0.61  0.73  0.84  0.72  0.60  0.47  0.53  0.58  0.63  0.58  0.54  0.49  0.61  0.73  0.84  0.72  0.60  0.47  0.53  0.58
0.63  0.58  0.54  0.49  0.61  0.73  0.84  0.72  0.60  0.47  0.53  0.58  0.63  0.58  0.54  0.49  0.61  0.73  0.84  0.72  0.60  0.47  0.53  0.58
0.63  0.58  0.54  0.49  0.61  0.73  0.84  0.72  0.60  0.47  0.53  0.58  0.63  0.58  0.54  0.49  0.61  0.73  0.84  0.72  0.60  0.47  0.53  0.58
0.63  0.58  0.54  0.49  0.61  0.73  0.84  0.72  0.60  0.47  0.53  0.58  0.63  0.58  0.54  0.49  0.61  0.73  0.84  0.72  0.60  0.47  0.53  0.58
0.63  0.58  0.54  0.49  0.61  0.73  0.84  0.72  0.60  0.47  0.53  0.58  0.63  0.58  0.54  0.49  0.61  0.73  0.84  0.72  0.60  0.47  0.53  0.58
0.63  0.58  0.54  0.49  0.61  0.73  0.84  0.72  0.60  0.47  0.53  0.58  0.63  0.58  0.54  0.49  0.61  0.73  0.84  0.72  0.60  0.47  0.53  0.58
[...]
0.53  0.48  0.43  0.38  0.55  0.73  0.90  0.73  0.57  0.41  0.45  0.49  0.53  0.48  0.43  0.38  0.55  0.73  0.90  0.73  0.57  0.41  0.45  0.49
0.53  0.48  0.43  0.38  0.55  0.73  0.90  0.73  0.57  0.41  0.45  0.49  0.53  0.48  0.43  0.38  0.55  0.73  0.90  0.73  0.57  0.41  0.45  0.49
0.53  0.48  0.43  0.38  0.55  0.73  0.90  0.73  0.57  0.41  0.45  0.49  0.53  0.48  0.43  0.38  0.55  0.73  0.90  0.73  0.57  0.41  0.45  0.49
0.53  0.48  0.43  0.38  0.55  0.73  0.90  0.73  0.57  0.41  0.45  0.49  0.53  0.48  0.43  0.38  0.55  0.73  0.90  0.73  0.57  0.41  0.45  0.49
0.53  0.48  0.43  0.38  0.55  0.73  0.90  0.73  0.57  0.41  0.45  0.49  0.53  0.48  0.43  0.38  0.55  0.73  0.90  0.73  0.57  0.41  0.45  0.49
0.53  0.48  0.43  0.38  0.55  0.73  0.90  0.73  0.57  0.41  0.45  0.49  0.53  0.48  0.43  0.38  0.55  0.73  0.90  0.73  0.57  0.41  0.45  0.49
0.53  0.48  0.43  0.38  0.55  0.73  0.90  0.73  0.57  0.41  0.45  0.49  0.53  0.48  0.43  0.38  0.55  0.73  0.90  0.73  0.57  0.41  0.45  0.49
$beta by ik, ith
0.60  0.57  0.55  0.52  0.64  0.77  0.90  0.84  0.79  0.73  0.75  0.76  0.78  0.75  0.72  0.70  0.76  0.82  0.89  0.77  0.65  0.53  0.55  0.58
0.60  0.57  0.55  0.52  0.64  0.77  0.90  0.84  0.79  0.73  0.75  0.76  0.78  0.75  0.72  0.70  0.76  0.82  0.89  0.77  0.65  0.53  0.55  0.58
0.60  0.57  0.55  0.52  0.64  0.77  0.90  0.84  0.79  0.73  0.75  0.76  0.78  0.75  0.72  0.70  0.76  0.82  0.89  0.77  0.65  0.53  0.55  0.58
0.60  0.57  0.55  0.52  0.64  0.77  0.90  0.84  0.79  0.73  0.75  0.76  0.78  0.75  0.72  0.70  0.76  0.82  0.89  0.77  0.65  0.53  0.55  0.58
0.60  0.57  0.55  0.52  0.64  0.77  0.90  0.84  0.79  0.73  0.75  0.76  0.78  0.75  0.72  0.70  0.76  0.82  0.89  0.77  0.65  0.53  0.55  0.58
0.60  0.57  0.55  0.52  0.64  0.77  0.90  0.84  0.79  0.73  0.75  0.76  0.78  0.75  0.72  0.70  0.76  0.82  0.89  0.77  0.65  0.53  0.55  0.58
0.60  0.57  0.55  0.52  0.64  0.77  0.90  0.84  0.79  0.73  0.75  0.76  0.78  0.75  0.72  0.70  0.76  0.82  0.89  0.77  0.65  0.53  0.55  0.58
0.60  0.57  0.55  0.52  0.64  0.77  0.90  0.84  0.79  0.73  0.75  0.76  0.78  0.75  0.72  0.70  0.76  0.82  0.89  0.77  0.65  0.53  0.55  0.58
0.60  0.57  0.55  0.52  0.64  0.77  0.90  0.84  0.79  0.73  0.75  0.76  0.78  0.75  0.72  0.70  0.76  0.82  0.89  0.77  0.65  0.53  0.55  0.58
0.60  0.57  0.55  0.52  0.64  0.77  0.90  0.84  0.79  0.73  0.75  0.76  0.78  0.75  0.72  0.70  0.76  0.82  0.89  0.77  0.65  0.53  0.55  0.58
0.60  0.57  0.55  0.52  0.64  0.77  0.90  0.84  0.79  0.73  0.75  0.76  0.78  0.75  0.72  0.70  0.76  0.82  0.89  0.77  0.65  0.53  0.55  0.58
0.60  0.57  0.55  0.52  0.64  0.77  0.90  0.84  0.79  0.73  0.75  0.76  0.78  0.75  0.72  0.70  0.76  0.82  0.89  0.77  0.65  0.53  0.55  0.58
0.60  0.57  0.55  0.52  0.64  0.77  0.90  0.84  0.79  0.73  0.75  0.76  0.78  0.75  0.72  0.70  0.76  0.82  0.89  0.77  0.65  0.53  0.55  0.58
0.60  0.57  0.55  0.52  0.64  0.77  0.90  0.84  0.79  0.73  0.75  0.76  0.78  0.75  0.72  0.70  0.76  0.82  0.89  0.77  0.65  0.53  0.55  0.58
0.60  0.57  0.55  0.52  0.64  0.77  0.90  0.84  0.79  0.73  0.75  0.76  0.78  0.75  0.72  0.70  0.76  0.82  0.89  0.77  0.65  0.53  0.55  0.58
0.60  0.57  0.55  0.52  0.64  0.77  0.90  0.84  0.79  0.73  0.75  0.76  0.78  0.75  0.72  0.70  0.76  0.82  0.89  0.77  0.65  0.53  0.55  0.58
0.60  0.57  0.55  0.52  0.64  0.77  0.90  0.84  0.79  0.73  0.75  0.76  0.78  0.75  0.72  0.70  0.76  0.82  0.89  0.77  0.65  0.53  0.55  0.58
0.60  0.57  0.55  0.52  0.64  0.77  0.90  0.84  0.79  0.73  0.75  0.76  0.78  0.75  0.72  0.70  0.76  0.82  0.89  0.77  0.65  0.53  0.55  0.58
0.60  0.57  0.55  0.52  0.64  0.77  0.90  0.84  0.79  0.73  0.75  0.76  0.78  0.75  0.72  0.70  0.76  0.82  0.89  0.77  0.65  0.53  0.55  0.58
0.60  0.57  0.55  0.52  0.64  0.77  0.90  0.84  0.79  0.73  0.75  0.76  0.78  0.75  0.72  0.70  0.76  0.82  0.89  0.77  0.65  0.53  0.55  0.58
0.60  0.57  0.55  0.52  0.64  0.77  0.90  0.84  0.79  0.73  0.75  0.76  0.78  0.75  0.72  0.70  0.76  0.82  0.89  0.77  0.65  0.53  0.55  0.58
0.60  0.57  0.55  0.52  0.64  0.77  0.90  0.84  0.79  0.73  0.75  0.76  0.78  0.75  0.72  0.70  0.76  0.82  0.89  0.77  0.65  0.53  0.55  0.58
0.60  0.57  0.55  0.52  0.64  0.77  0.90  0.84  0.79  0.73  0.75  0.76  0.78  0.75  0.72  0.70  0.76  0.82  0.89  0.77  0.65  0.53  0.55  0.58
0.60  0.57  0.55  0.52  0.64  0.77  0.90  0.84  0.79  0.73  0.75  0.76  0.78  0.75  0.72  0.70  0.76  0.82  0.89  0.77  0.65  0.53  0.55  0.58
0.60  0.57  0.55  0.52  0.64  0.77  0.90  0.84  0.79  0.73  0.75  0.76  0.78  0.75  0.72  0.70  0.76  0.82  0.89  0.77  0.65  0.53  0.55  0.58
$ ilon ilat of the cell. lon: 7.73807143, 37.53790307
321   1
$ sizes of the cell in km
    55.943       56.307       57.868       59.535       60.058       60.256       59.317       59.842       60.044       59.766       58.808       56.551       55.943       56.307       57.868       59.535       60.058       60.256       59.317       59.842       60.044       59.766       58.808       56.551
$ mean alpha: 0.539353526216
$ mean beta: 0.675027369313
$alpha by ik, ith
0.54  0.50  0.46  0.42  0.56  0.70  0.84  0.68  0.52  0.36  0.42  0.48  0.54  0.50  0.46  0.42  0.56  0.70  0.84  0.68  0.52  0.36  0.42  0.48
0.54  0.50  0.46  0.42  0.56  0.70  0.84  0.68  0.52  0.36  0.42  0.48  0.54  0.50  0.46  0.42  0.56  0.70  0.84  0.68  0.52  0.36  0.42  0.48
0.54  0.50  0.46  0.42  0.56  0.70  0.84  0.68  0.52  0.36  0.42  0.48  0.54  0.50  0.46  0.42  0.56  0.70  0.84  0.68  0.52  0.36  0.42  0.48
0.54  0.50  0.46  0.42  0.56  0.70  0.84  0.68  0.52  0.36  0.42  0.48  0.54  0.50  0.46  0.42  0.56  0.70  0.84  0.68  0.52  0.36  0.42  0.48
0.54  0.50  0.46  0.42  0.56  0.70  0.84  0.68  0.52  0.36  0.42  0.48  0.54  0.50  0.46  0.42  0.56  0.70  0.84  0.68  0.52  0.36  0.42  0.48
0.54  0.50  0.46  0.42  0.56  0.70  0.84  0.68  0.52  0.36  0.42  0.48  0.54  0.50  0.46  0.42  0.56  0.70  0.84  0.68  0.52  0.36  0.42  0.48
0.54  0.50  0.46  0.42  0.56  0.70  0.84  0.68  0.52  0.36  0.42  0.48  0.54  0.50  0.46  0.42  0.56  0.70  0.84  0.68  0.52  0.36  0.42  0.48
0.54  0.50  0.46  0.42  0.56  0.70  0.84  0.68  0.52  0.36  0.42  0.48  0.54  0.50  0.46  0.42  0.56  0.70  0.84  0.68  0.52  0.36  0.42  0.48
0.54  0.50  0.46  0.42  0.56  0.70  0.84  0.68  0.52  0.36  0.42  0.48  0.54  0.50  0.46  0.42  0.56  0.70  0.84  0.68  0.52  0.36  0.42  0.48
0.54  0.50  0.46  0.42  0.56  0.70  0.84  0.68  0.52  0.36  0.42  0.48  0.54  0.50  0.46  0.42  0.56  0.70  0.84  0.68  0.52  0.36  0.42  0.48
0.54  0.50  0.46  0.42  0.56  0.70  0.84  0.68  0.52  0.36  0.42  0.48  0.54  0.50  0.46  0.42  0.56  0.70  0.84  0.68  0.52  0.36  0.42  0.48
0.54  0.50  0.46  0.42  0.56  0.70  0.84  0.68  0.52  0.36  0.42  0.48  0.54  0.50  0.46  0.42  0.56  0.70  0.84  0.68  0.52  0.36  0.42  0.48
0.54  0.50  0.46  0.42  0.56  0.70  0.84  0.68  0.52  0.36  0.42  0.48  0.54  0.50  0.46  0.42  0.56  0.70  0.84  0.68  0.52  0.36  0.42  0.48
0.54  0.50  0.46  0.42  0.56  0.70  0.84  0.68  0.52  0.36  0.42  0.48  0.54  0.50  0.46  0.42  0.56  0.70  0.84  0.68  0.52  0.36  0.42  0.48
0.54  0.50  0.46  0.42  0.56  0.70  0.84  0.68  0.52  0.36  0.42  0.48  0.54  0.50  0.46  0.42  0.56  0.70  0.84  0.68  0.52  0.36  0.42  0.48
0.54  0.50  0.46  0.42  0.56  0.70  0.84  0.68  0.52  0.36  0.42  0.48  0.54  0.50  0.46  0.42  0.56  0.70  0.84  0.68  0.52  0.36  0.42  0.48
0.54  0.50  0.46  0.42  0.56  0.70  0.84  0.68  0.52  0.36  0.42  0.48  0.54  0.50  0.46  0.42  0.56  0.70  0.84  0.68  0.52  0.36  0.42  0.48
0.54  0.50  0.46  0.42  0.56  0.70  0.84  0.68  0.52  0.36  0.42  0.48  0.54  0.50  0.46  0.42  0.56  0.70  0.84  0.68  0.52  0.36  0.42  0.48
0.54  0.50  0.46  0.42  0.56  0.70  0.84  0.68  0.52  0.36  0.42  0.48  0.54  0.50  0.46  0.42  0.56  0.70  0.84  0.68  0.52  0.36  0.42  0.48
0.54  0.50  0.46  0.42  0.56  0.70  0.84  0.68  0.52  0.36  0.42  0.48  0.54  0.50  0.46  0.42  0.56  0.70  0.84  0.68  0.52  0.36  0.42  0.48
0.54  0.50  0.46  0.42  0.56  0.70  0.84  0.68  0.52  0.36  0.42  0.48  0.54  0.50  0.46  0.42  0.56  0.70  0.84  0.68  0.52  0.36  0.42  0.48
0.54  0.50  0.46  0.42  0.56  0.70  0.84  0.68  0.52  0.36  0.42  0.48  0.54  0.50  0.46  0.42  0.56  0.70  0.84  0.68  0.52  0.36  0.42  0.48
0.54  0.50  0.46  0.42  0.56  0.70  0.84  0.68  0.52  0.36  0.42  0.48  0.54  0.50  0.46  0.42  0.56  0.70  0.84  0.68  0.52  0.36  0.42  0.48
0.54  0.50  0.46  0.42  0.56  0.70  0.84  0.68  0.52  0.36  0.42  0.48  0.54  0.50  0.46  0.42  0.56  0.70  0.84  0.68  0.52  0.36  0.42  0.48
0.54  0.50  0.46  0.42  0.56  0.70  0.84  0.68  0.52  0.36  0.42  0.48  0.54  0.50  0.46  0.42  0.56  0.70  0.84  0.68  0.52  0.36  0.42  0.48
$beta by ik, ith
0.80  0.77  0.74  0.72  0.76  0.80  0.85  0.72  0.59  0.46  0.49  0.53  0.57  0.54  0.52  0.50  0.61  0.72  0.83  0.79  0.74  0.69  0.72  0.76
0.80  0.77  0.74  0.72  0.76  0.80  0.85  0.72  0.59  0.46  0.49  0.53  0.57  0.54  0.52  0.50  0.61  0.72  0.83  0.79  0.74  0.69  0.72  0.76
0.80  0.77  0.74  0.72  0.76  0.80  0.85  0.72  0.59  0.46  0.49  0.53  0.57  0.54  0.52  0.50  0.61  0.72  0.83  0.79  0.74  0.69  0.72  0.76
0.80  0.77  0.74  0.72  0.76  0.80  0.85  0.72  0.59  0.46  0.49  0.53  0.57  0.54  0.52  0.50  0.61  0.72  0.83  0.79  0.74  0.69  0.72  0.76
0.80  0.77  0.74  0.72  0.76  0.80  0.85  0.72  0.59  0.46  0.49  0.53  0.57  0.54  0.52  0.50  0.61  0.72  0.83  0.79  0.74  0.69  0.72  0.76
0.80  0.77  0.74  0.72  0.76  0.80  0.85  0.72  0.59  0.46  0.49  0.53  0.57  0.54  0.52  0.50  0.61  0.72  0.83  0.79  0.74  0.69  0.72  0.76
0.80  0.77  0.74  0.72  0.76  0.80  0.85  0.72  0.59  0.46  0.49  0.53  0.57  0.54  0.52  0.50  0.61  0.72  0.83  0.79  0.74  0.69  0.72  0.76
0.80  0.77  0.74  0.72  0.76  0.80  0.85  0.72  0.59  0.46  0.49  0.53  0.57  0.54  0.52  0.50  0.61  0.72  0.83  0.79  0.74  0.69  0.72  0.76
0.80  0.77  0.74  0.72  0.76  0.80  0.85  0.72  0.59  0.46  0.49  0.53  0.57  0.54  0.52  0.50  0.61  0.72  0.83  0.79  0.74  0.69  0.72  0.76
0.80  0.77  0.74  0.72  0.76  0.80  0.85  0.72  0.59  0.46  0.49  0.53  0.57  0.54  0.52  0.50  0.61  0.72  0.83  0.79  0.74  0.69  0.72  0.76
0.80  0.77  0.74  0.72  0.76  0.80  0.85  0.72  0.59  0.46  0.49  0.53  0.57  0.54  0.52  0.50  0.61  0.72  0.83  0.79  0.74  0.69  0.72  0.76
0.80  0.77  0.74  0.72  0.76  0.80  0.85  0.72  0.59  0.46  0.49  0.53  0.57  0.54  0.52  0.50  0.61  0.72  0.83  0.79  0.74  0.69  0.72  0.76
0.80  0.77  0.74  0.72  0.76  0.80  0.85  0.72  0.59  0.46  0.49  0.53  0.57  0.54  0.52  0.50  0.61  0.72  0.83  0.79  0.74  0.69  0.72  0.76
0.80  0.77  0.74  0.72  0.76  0.80  0.85  0.72  0.59  0.46  0.49  0.53  0.57  0.54  0.52  0.50  0.61  0.72  0.83  0.79  0.74  0.69  0.72  0.76
0.80  0.77  0.74  0.72  0.76  0.80  0.85  0.72  0.59  0.46  0.49  0.53  0.57  0.54  0.52  0.50  0.61  0.72  0.83  0.79  0.74  0.69  0.72  0.76
0.80  0.77  0.74  0.72  0.76  0.80  0.85  0.72  0.59  0.46  0.49  0.53  0.57  0.54  0.52  0.50  0.61  0.72  0.83  0.79  0.74  0.69  0.72  0.76
0.80  0.77  0.74  0.72  0.76  0.80  0.85  0.72  0.59  0.46  0.49  0.53  0.57  0.54  0.52  0.50  0.61  0.72  0.83  0.79  0.74  0.69  0.72  0.76
0.80  0.77  0.74  0.72  0.76  0.80  0.85  0.72  0.59  0.46  0.49  0.53  0.57  0.54  0.52  0.50  0.61  0.72  0.83  0.79  0.74  0.69  0.72  0.76
0.80  0.77  0.74  0.72  0.76  0.80  0.85  0.72  0.59  0.46  0.49  0.53  0.57  0.54  0.52  0.50  0.61  0.72  0.83  0.79  0.74  0.69  0.72  0.76
0.80  0.77  0.74  0.72  0.76  0.80  0.85  0.72  0.59  0.46  0.49  0.53  0.57  0.54  0.52  0.50  0.61  0.72  0.83  0.79  0.74  0.69  0.72  0.76
0.80  0.77  0.74  0.72  0.76  0.80  0.85  0.72  0.59  0.46  0.49  0.53  0.57  0.54  0.52  0.50  0.61  0.72  0.83  0.79  0.74  0.69  0.72  0.76
0.80  0.77  0.74  0.72  0.76  0.80  0.85  0.72  0.59  0.46  0.49  0.53  0.57  0.54  0.52  0.50  0.61  0.72  0.83  0.79  0.74  0.69  0.72  0.76
0.80  0.77  0.74  0.72  0.76  0.80  0.85  0.72  0.59  0.46  0.49  0.53  0.57  0.54  0.52  0.50  0.61  0.72  0.83  0.79  0.74  0.69  0.72  0.76
0.80  0.77  0.74  0.72  0.76  0.80  0.85  0.72  0.59  0.46  0.49  0.53  0.57  0.54  0.52  0.50  0.61  0.72  0.83  0.79  0.74  0.69  0.72  0.76
0.80  0.77  0.74  0.72  0.76  0.80  0.85  0.72  0.59  0.46  0.49  0.53  0.57  0.54  0.52  0.50  0.61  0.72  0.83  0.79  0.74  0.69  0.72  0.76
$ ilon ilat of the cell. lon: 7.90280546, 37.12852948
322   1
$ sizes of the cell in km
    62.842       66.953       66.285       65.293       63.443       62.224       60.296       58.038       57.823       56.887       56.361       58.855       62.842       66.953       66.285       65.293       63.443       62.224       60.296       58.038       57.823       56.887       56.361       58.855
$ mean alpha: 0.550890938991
$ mean beta: 0.691941194829
$alpha by ik, ith
0.55  0.50  0.44  0.38  0.54  0.70  0.86  0.71  0.56  0.40  0.45  0.50  0.55  0.50  0.44  0.38  0.54  0.70  0.86  0.71  0.56  0.40  0.45  0.50
0.55  0.50  0.44  0.38  0.54  0.70  0.86  0.71  0.56  0.40  0.45  0.50  0.55  0.50  0.44  0.38  0.54  0.70  0.86  0.71  0.56  0.40  0.45  0.50
0.55  0.50  0.44  0.38  0.54  0.70  0.86  0.71  0.56  0.40  0.45  0.50  0.55  0.50  0.44  0.38  0.54  0.70  0.86  0.71  0.56  0.40  0.45  0.50
0.55  0.50  0.44  0.38  0.54  0.70  0.86  0.71  0.56  0.40  0.45  0.50  0.55  0.50  0.44  0.38  0.54  0.70  0.86  0.71  0.56  0.40  0.45  0.50
0.55  0.50  0.44  0.38  0.54  0.70  0.86  0.71  0.56  0.40  0.45  0.50  0.55  0.50  0.44  0.38  0.54  0.70  0.86  0.71  0.56  0.40  0.45  0.50
0.55  0.50  0.44  0.38  0.54  0.70  0.86  0.71  0.56  0.40  0.45  0.50  0.55  0.50  0.44  0.38  0.54  0.70  0.86  0.71  0.56  0.40  0.45  0.50
0.55  0.50  0.44  0.38  0.54  0.70  0.86  0.71  0.56  0.40  0.45  0.50  0.55  0.50  0.44  0.38  0.54  0.70  0.86  0.71  0.56  0.40  0.45  0.50
0.55  0.50  0.44  0.38  0.54  0.70  0.86  0.71  0.56  0.40  0.45  0.50  0.55  0.50  0.44  0.38  0.54  0.70  0.86  0.71  0.56  0.40  0.45  0.50
0.55  0.50  0.44  0.38  0.54  0.70  0.86  0.71  0.56  0.40  0.45  0.50  0.55  0.50  0.44  0.38  0.54  0.70  0.86  0.71  0.56  0.40  0.45  0.50
0.55  0.50  0.44  0.38  0.54  0.70  0.86  0.71  0.56  0.40  0.45  0.50  0.55  0.50  0.44  0.38  0.54  0.70  0.86  0.71  0.56  0.40  0.45  0.50
0.55  0.50  0.44  0.38  0.54  0.70  0.86  0.71  0.56  0.40  0.45  0.50  0.55  0.50  0.44  0.38  0.54  0.70  0.86  0.71  0.56  0.40  0.45  0.50
0.55  0.50  0.44  0.38  0.54  0.70  0.86  0.71  0.56  0.40  0.45  0.50  0.55  0.50  0.44  0.38  0.54  0.70  0.86  0.71  0.56  0.40  0.45  0.50
0.55  0.50  0.44  0.38  0.54  0.70  0.86  0.71  0.56  0.40  0.45  0.50  0.55  0.50  0.44  0.38  0.54  0.70  0.86  0.71  0.56  0.40  0.45  0.50
0.55  0.50  0.44  0.38  0.54  0.70  0.86  0.71  0.56  0.40  0.45  0.50  0.55  0.50  0.44  0.38  0.54  0.70  0.86  0.71  0.56  0.40  0.45  0.50
0.55  0.50  0.44  0.38  0.54  0.70  0.86  0.71  0.56  0.40  0.45  0.50  0.55  0.50  0.44  0.38  0.54  0.70  0.86  0.71  0.56  0.40  0.45  0.50
0.55  0.50  0.44  0.38  0.54  0.70  0.86  0.71  0.56  0.40  0.45  0.50  0.55  0.50  0.44  0.38  0.54  0.70  0.86  0.71  0.56  0.40  0.45  0.50
0.55  0.50  0.44  0.38  0.54  0.70  0.86  0.71  0.56  0.40  0.45  0.50  0.55  0.50  0.44  0.38  0.54  0.70  0.86  0.71  0.56  0.40  0.45  0.50
0.55  0.50  0.44  0.38  0.54  0.70  0.86  0.71  0.56  0.40  0.45  0.50  0.55  0.50  0.44  0.38  0.54  0.70  0.86  0.71  0.56  0.40  0.45  0.50
0.55  0.50  0.44  0.38  0.54  0.70  0.86  0.71  0.56  0.40  0.45  0.50  0.55  0.50  0.44  0.38  0.54  0.70  0.86  0.71  0.56  0.40  0.45  0.50
0.55  0.50  0.44  0.38  0.54  0.70  0.86  0.71  0.56  0.40  0.45  0.50  0.55  0.50  0.44  0.38  0.54  0.70  0.86  0.71  0.56  0.40  0.45  0.50
0.55  0.50  0.44  0.38  0.54  0.70  0.86  0.71  0.56  0.40  0.45  0.50  0.55  0.50  0.44  0.38  0.54  0.70  0.86  0.71  0.56  0.40  0.45  0.50
0.55  0.50  0.44  0.38  0.54  0.70  0.86  0.71  0.56  0.40  0.45  0.50  0.55  0.50  0.44  0.38  0.54  0.70  0.86  0.71  0.56  0.40  0.45  0.50
0.55  0.50  0.44  0.38  0.54  0.70  0.86  0.71  0.56  0.40  0.45  0.50  0.55  0.50  0.44  0.38  0.54  0.70  0.86  0.71  0.56  0.40  0.45  0.50
0.55  0.50  0.44  0.38  0.54  0.70  0.86  0.71  0.56  0.40  0.45  0.50  0.55  0.50  0.44  0.38  0.54  0.70  0.86  0.71  0.56  0.40  0.45  0.50
0.55  0.50  0.44  0.38  0.54  0.70  0.86  0.71  0.56  0.40  0.45  0.50  0.55  0.50  0.44  0.38  0.54  0.70  0.86  0.71  0.56  0.40  0.45  0.50
$beta by ik, ith
0.69  0.66  0.62  0.59  0.68  0.78  0.87  0.80  0.73  0.66  0.67  0.69  0.70  0.67  0.65  0.62  0.70  0.77  0.85  0.75  0.65  0.56  0.60  0.65
0.69  0.66  0.62  0.59  0.68  0.78  0.87  0.80  0.73  0.66  0.67  0.69  0.70  0.67  0.65  0.62  0.70  0.77  0.85  0.75  0.65  0.56  0.60  0.65
0.69  0.66  0.62  0.59  0.68  0.78  0.87  0.80  0.73  0.66  0.67  0.69  0.70  0.67  0.65  0.62  0.70  0.77  0.85  0.75  0.65  0.56  0.60  0.65
0.69  0.66  0.62  0.59  0.68  0.78  0.87  0.80  0.73  0.66  0.67  0.69  0.70  0.67  0.65  0.62  0.70  0.77  0.85  0.75  0.65  0.56  0.60  0.65
0.69  0.66  0.62  0.59  0.68  0.78  0.87  0.80  0.73  0.66  0.67  0.69  0.70  0.67  0.65  0.62  0.70  0.77  0.85  0.75  0.65  0.56  0.60  0.65
0.69  0.66  0.62  0.59  0.68  0.78  0.87  0.80  0.73  0.66  0.67  0.69  0.70  0.67  0.65  0.62  0.70  0.77  0.85  0.75  0.65  0.56  0.60  0.65
0.69  0.66  0.62  0.59  0.68  0.78  0.87  0.80  0.73  0.66  0.67  0.69  0.70  0.67  0.65  0.62  0.70  0.77  0.85  0.75  0.65  0.56  0.60  0.65
0.69  0.66  0.62  0.59  0.68  0.78  0.87  0.80  0.73  0.66  0.67  0.69  0.70  0.67  0.65  0.62  0.70  0.77  0.85  0.75  0.65  0.56  0.60  0.65
0.69  0.66  0.62  0.59  0.68  0.78  0.87  0.80  0.73  0.66  0.67  0.69  0.70  0.67  0.65  0.62  0.70  0.77  0.85  0.75  0.65  0.56  0.60  0.65
0.69  0.66  0.62  0.59  0.68  0.78  0.87  0.80  0.73  0.66  0.67  0.69  0.70  0.67  0.65  0.62  0.70  0.77  0.85  0.75  0.65  0.56  0.60  0.65
0.69  0.66  0.62  0.59  0.68  0.78  0.87  0.80  0.73  0.66  0.67  0.69  0.70  0.67  0.65  0.62  0.70  0.77  0.85  0.75  0.65  0.56  0.60  0.65
0.69  0.66  0.62  0.59  0.68  0.78  0.87  0.80  0.73  0.66  0.67  0.69  0.70  0.67  0.65  0.62  0.70  0.77  0.85  0.75  0.65  0.56  0.60  0.65
0.69  0.66  0.62  0.59  0.68  0.78  0.87  0.80  0.73  0.66  0.67  0.69  0.70  0.67  0.65  0.62  0.70  0.77  0.85  0.75  0.65  0.56  0.60  0.65
0.69  0.66  0.62  0.59  0.68  0.78  0.87  0.80  0.73  0.66  0.67  0.69  0.70  0.67  0.65  0.62  0.70  0.77  0.85  0.75  0.65  0.56  0.60  0.65
0.69  0.66  0.62  0.59  0.68  0.78  0.87  0.80  0.73  0.66  0.67  0.69  0.70  0.67  0.65  0.62  0.70  0.77  0.85  0.75  0.65  0.56  0.60  0.65
0.69  0.66  0.62  0.59  0.68  0.78  0.87  0.80  0.73  0.66  0.67  0.69  0.70  0.67  0.65  0.62  0.70  0.77  0.85  0.75  0.65  0.56  0.60  0.65
0.69  0.66  0.62  0.59  0.68  0.78  0.87  0.80  0.73  0.66  0.67  0.69  0.70  0.67  0.65  0.62  0.70  0.77  0.85  0.75  0.65  0.56  0.60  0.65
0.69  0.66  0.62  0.59  0.68  0.78  0.87  0.80  0.73  0.66  0.67  0.69  0.70  0.67  0.65  0.62  0.70  0.77  0.85  0.75  0.65  0.56  0.60  0.65
0.69  0.66  0.62  0.59  0.68  0.78  0.87  0.80  0.73  0.66  0.67  0.69  0.70  0.67  0.65  0.62  0.70  0.77  0.85  0.75  0.65  0.56  0.60  0.65
0.69  0.66  0.62  0.59  0.68  0.78  0.87  0.80  0.73  0.66  0.67  0.69  0.70  0.67  0.65  0.62  0.70  0.77  0.85  0.75  0.65  0.56  0.60  0.65
0.69  0.66  0.62  0.59  0.68  0.78  0.87  0.80  0.73  0.66  0.67  0.69  0.70  0.67  0.65  0.62  0.70  0.77  0.85  0.75  0.65  0.56  0.60  0.65
0.69  0.66  0.62  0.59  0.68  0.78  0.87  0.80  0.73  0.66  0.67  0.69  0.70  0.67  0.65  0.62  0.70  0.77  0.85  0.75  0.65  0.56  0.60  0.65
0.69  0.66  0.62  0.59  0.68  0.78  0.87  0.80  0.73  0.66  0.67  0.69  0.70  0.67  0.65  0.62  0.70  0.77  0.85  0.75  0.65  0.56  0.60  0.65
0.69  0.66  0.62  0.59  0.68  0.78  0.87  0.80  0.73  0.66  0.67  0.69  0.70  0.67  0.65  0.62  0.70  0.77  0.85  0.75  0.65  0.56  0.60  0.65
0.69  0.66  0.62  0.59  0.68  0.78  0.87  0.80  0.73  0.66  0.67  0.69  0.70  0.67  0.65  0.62  0.70  0.77  0.85  0.75  0.65  0.56  0.60  0.65
