$ -------------------------------------------------------------------- $
$ WAVEWATCH III Grid preprocessor input file                           $
$ -------------------------------------------------------------------- $
$
  'Norwegian coast 4x2 min       '
$
   1.1  0.04118  25  24  0.
$
   F T T T F T
$
    300.  140.  300. 20.                              
$
  &MISC CICE0 = 0.25, CICEN = 0.75, FLAGTR = 4 /
END OF NAMELISTS
$
     'RECT' T 'NONE'
     91    121
      4.     2.    60.
      6.    62.     1.
     -0.1  2.50  20  0.001 1 1 '(....)' 'NAME' 'coast_2m.bot'
                 21  0.010 1 1 '(....)'  NAME  'coast_2m.obs'
                 22        1 1 '(....)'  NAME  'coast_2m.mask'
$
     0.    0.    0.    0.       0
$
$ -------------------------------------------------------------------- $
$ End of input file                                                    $
$ -------------------------------------------------------------------- $
