$ -------------------------------------------------------------------- $
$ WAVEWATCH III Grid preprocessor input file                           $
$ -------------------------------------------------------------------- $
$
  'Birgitte Furevik high-res grid'
$
   1.1  0.04118  25  24  0.
$
   F T T T F T
$
     60.   20.   60. 10.                              
$
END OF NAMELISTS
$
$ This grid is defined by the bathymetry only, no obstructions.
$
    'RECT' T 'NONE'
    417    228
      0.009  0.0045 1.
      7.5   63.08   1.
     -0.1  2.50  20  1. 1 1 '(....)' 'NAME' 'trondheim.bot'
$
   10 3 1 '(....)' 'PART' 'dummy'
$
      1   5   F
      1 115   T
    114 228   T
$     1 228   T
    191 228   T
    202 228   F
    265 228   T
      0   0   F
$
      0   0   F
$
      2 227
      0   0
$
     0.    0.    0.    0.       0
$
$ -------------------------------------------------------------------- $
$ End of input file                                                    $
$ -------------------------------------------------------------------- $
