#############################################################################
#                                                                           #
# mww3_test_01 : Tests for expanded status map.                             #
#                                                                           #
# Model should be compiled with the switches :                              #
#                                                                           #
#   !/FLX1 !/LN0 !/ST0 !/NL0 !/BT0 !/DB1 !/TR0 !/BS0 !/XX0                  #
#                        Only depth breaking relevant here.                 #
#   !/PRn                Selecting one of the propagation schemes.          #
#   !/O0 !/O1 !/O2 !/O3 !/O4 !/O5 !/O6 !/O7 !/O10 !/O11                     #
#                        Sdt out output options.                            #
#                                                                           #
# No other optional switches should be used.                                #
#                                                                           #
# Remarks :                                                                 #
# - Grads scripts do not display but prodice .eps files.                    #
# - Script set up for parallel running :                                    #
#    a) For cluster with mpirun activate mpirun command lines and set       #
#       environment with valiables MPI and proc in section 0.               #
#    b) For IBM with poe, activale poe command lines and set environment    #
#       variables in poe jobcards at the top of the scripts.                #
#                                                                           #
#                                              Hendrik Tolman, Jun 2002     #
#                                                   Last Mod : Mar 2011     #
#                                                                           #
#    Copyright 2009 National Weather Service (NWS),                         #
#       National Oceanic and Atmospheric Administration.  All rights        #
#       reserved.  WAVEWATCH III is a trademark of the NWS.                 #
#       No unauthorized use without permission.                             #
#                                                                           #
#  Additional remarks: despite its name, mww3_test_01 is apparently         #
#     *not* a multi-grid test case. There exists no ww3_multi.inp           #
#     and there is a ww3_shel.inp.                                          #
#                                                                           #
#############################################################################
