$ WAVEWATCH III Grid output post-processing
$ -----------------------------------------
  19680606 000000  3600. 13
$
  F F F F F  T F F F F  F F F F F  F F F F F  F F F F F  F F F F F  F
$
  1  1
  1 23 1 1 23 1 F F T
