$ WAVEWATCH III Point output post-processing (GrADS)
$ --------------------------------------------------
  19680608 000000 1. 1
$
   1
   2
   3
   4
   6
   8
  10
  12
  16
  20
  24
  -1
$
  T T T T T T
