$ WAVEWATCH III Initial conditions input file
$ -------------------------------------------
  5
$ 3
$ 2
$ 0.0  0.15  270.  3.3 0. 0. 0. 1.E10 0. 1.
