WAVEWATCH III TRACK LOCATIONS DATA
19680606 000000  0.00 -0.04
19680606 010000  0.02 -0.02
19680606 020000  0.04  0.00
19680606 030000  0.06  0.02
19680606 040000  0.08  0.04
19680606 050000  0.10  0.06
19680606 060000  0.12  0.08
19680606 070000  0.14  0.10
19680606 080000  0.16  0.12
19680606 090000  0.18  0.14
19680606 100000  0.20  0.16
19680606 110000  0.22  0.18
19680606 120000  0.24  0.20
19680606 130000  0.26  0.22
19680606 140000  0.28  0.24
19680606 150000  0.30  0.26
19680606 160000  0.32  0.28
19680606 170000  0.34  0.30
19680606 180000  0.36  0.32
19680606 190000  0.38  0.34
19680606 200000  0.40  0.36
19680606 210000  0.42  0.38
19680606 220000  0.44  0.40
19680606 230000  0.46  0.42
19680607 000000  0.48  0.44
19680607 010000  0.50  0.46
19680607 020000  0.52  0.48
19680607 030000  0.54  0.50
19680607 040000  0.56  0.52
19680607 050000  0.58  0.54
19680607 060000  0.60  0.56
19680607 070000  0.62  0.58
19680607 080000  0.64  0.60
19680607 090000  0.66  0.62
19680607 100000  0.68  0.64
19680607 110000  0.70  0.66
19680607 120000  0.72  0.68
19680607 130000  0.74  0.70
19680607 140000  0.76  0.72
19680607 150000  0.78  0.74
19680607 160000  0.80  0.76
19680607 170000  0.82  0.78
19680607 180000  0.84  0.80
19680607 190000  0.86  0.82
19680607 200000  0.88  0.84
19680607 210000  0.90  0.86
19680607 220000  0.92  0.88
19680607 230000  0.94  0.90
19680608 000000  0.96  0.92
