$ WAVEWATCH III Grid output post-processing
$ -----------------------------------------
  19680612 000000 518400. 2
$
  F F F F F  T F F T T  F F F F F  F F F F F  F F F F F F  F F F F F  F
$
  1 0
$
  1 193 1 1 93 1 T F F
