! -------------------------------------------------------------------- !
! WAVEWATCH III ww3_shel.nml - single-grid model                       !
! -------------------------------------------------------------------- !


! -------------------------------------------------------------------- !
! Define top-level model parameters via DOMAIN_NML namelist
! -------------------------------------------------------------------- !
&DOMAIN_NML
  DOMAIN%STOP    = '19680607 020000'
/

! -------------------------------------------------------------------- !
! Define each forcing via the INPUT_NML namelist
! -------------------------------------------------------------------- !
&INPUT_NML
  INPUT%FORCING%MUD_DENSITY   = 'T'
  INPUT%FORCING%MUD_THICKNESS = 'T'
  INPUT%FORCING%MUD_VISCOSITY = 'T'
  INPUT%FORCING%ICE_CONC      = 'T'
/

! -------------------------------------------------------------------- !
! Define the output types point parameters via OUTPUT_TYPE_NML namelist
! -------------------------------------------------------------------- !
&OUTPUT_TYPE_NML
  TYPE%FIELD%LIST          = 'DPT HS DIR'
  TYPE%POINT%FILE          = '../input/points.list'
/

! -------------------------------------------------------------------- !
! Define output dates via OUTPUT_DATE_NML namelist
! -------------------------------------------------------------------- !
&OUTPUT_DATE_NML
  DATE%FIELD          = '19680606 000000' '3600' '19680607 060000'
  DATE%POINT          = '19680606 000000' '3600' '19680607 060000'
/

! -------------------------------------------------------------------- !
! Define homogeneous input via HOMOG_COUNT_NML and HOMOG_INPUT_NML namelist
! -------------------------------------------------------------------- !
&HOMOG_COUNT_NML
/

&HOMOG_INPUT_NML
/

! -------------------------------------------------------------------- !
! WAVEWATCH III - end of namelist                                      !
! -------------------------------------------------------------------- !
