$ WAVEWATCH III Grid preprocessor input file
$ ------------------------------------------
  'MONOCHROMATIC SHOALING X      '
$
   1.25 0.08  3  4  0.
$
   F T F F F F
 1200.  1200.  1200.  1200.
$
 &PRO2 DTIME = 0. /
 &PRO3 WDTHCG = 0., WDTHTH = 0. /
 &PRO4 RNFAC = 0., RSFAC = 0. /
END OF NAMELISTS
$
  'RECT' F 'NONE'
   43  3
    15.E3   15.E3  1.
   -15.E3  -15.E3  1.
$
  -1. 1. 10  -1. 2 1 '(....)' 'UNIT' 'input'
$
  80 80 80 78 76 74 72 70 68 66 64 62 60 58 56 54 52 50
           48 46 44 42 40 38 36 34 32 30 28 26 24 22 20
           18 16 14 12 10  8  6  4  2  2
  80 80 80 78 76 74 72 70 68 66 64 62 60 58 56 54 52 50
           48 46 44 42 40 38 36 34 32 30 28 26 24 22 20
           18 16 14 12 10  8  6  4  2  2
  80 80 80 78 76 74 72 70 68 66 64 62 60 58 56 54 52 50
           48 46 44 42 40 38 36 34 32 30 28 26 24 22 20
           18 16 14 12 10  8  6  4  2  2
$ 
   10 1 1 '(....)' 'PART' 'mapsta.inp'
$
   1  2  F
   0  0  F
   0  0  F
   0  0 
$
   0. 0. 0. 0.  0
