$ WAVEWATCH III Grid output post-processing
$ -----------------------------------------
  19680606 010000 3600. 48
$
$
N
DPT HS FC CFX 
$
  1 0
$
  1 42 1 2 2 1 T F F
