$ WAVEWATCH III Point output post-processing
$ ------------------------------------------
  20110101 000000 10.  10
$
   1
  -1
$
   1
   1  0.  -1. 33   F
