! -------------------------------------------------------------------- !
! WAVEWATCH III ww3_ounf.nml - Grid output post-processing             !
! -------------------------------------------------------------------- !

! -------------------------------------------------------------------- !
! Define the output fields to postprocess via FIELD_NML namelist
! -------------------------------------------------------------------- !
&FIELD_NML
  FIELD%TIMESTART        =  '20110101 000000'
  FIELD%TIMESTRIDE       =  '10.'
  FIELD%TIMECOUNT        =  '100'
  FIELD%LIST             =  'DPT WND WLV HS T02 DIR SPR TAW TWO BHD SXY FOC USS USF'
  FIELD%PARTITION        =  '0'
  FIELD%TYPE             =  4
/

! -------------------------------------------------------------------- !
! Define the content of the output file via FILE_NML namelist
! -------------------------------------------------------------------- !
&FILE_NML
  FILE%IX0           = 2
  FILE%IXN           = 999
  FILE%IY0           = 2
  FILE%IYN           = 2
/

! -------------------------------------------------------------------- !
! WAVEWATCH III - end of namelist                                      !
! -------------------------------------------------------------------- !
