! -------------------------------------------------------------------- !
! WAVEWATCH III - ww3_grid.nml - Grid pre-processing                   !
! -------------------------------------------------------------------- !

! -------------------------------------------------------------------- !
! Define the spectrum parameterization via SPECTRUM_NML namelist
! -------------------------------------------------------------------- !
&SPECTRUM_NML
  SPECTRUM%XFR       =  1.091
  SPECTRUM%FREQ1     =  0.04
  SPECTRUM%NK        =  30
  SPECTRUM%NTH       =  90
/

! -------------------------------------------------------------------- !
! Define the run parameterization via RUN_NML namelist
! -------------------------------------------------------------------- !
&RUN_NML
  RUN%FLCX         =  T
  RUN%FLCTH        =  T
  RUN%FLCK         =  T
  RUN%FLSOU        =  T
/

! -------------------------------------------------------------------- !
! Define the timesteps parameterization via TIMESTEPS_NML namelist
! -------------------------------------------------------------------- !
&TIMESTEPS_NML
  TIMESTEPS%DTMAX        =  0.5
  TIMESTEPS%DTXY         =  0.25
  TIMESTEPS%DTKTH        =  0.25
  TIMESTEPS%DTMIN        =  0.1
/

! -------------------------------------------------------------------- !
! Define the grid to preprocess via GRID_NML namelist
! -------------------------------------------------------------------- !
&GRID_NML
  GRID%NAME         =  'VALIDATION - Haas Warner 2009'
  GRID%NML          =  '../input_BJ/namelists_VALIDATION.nml'
  GRID%TYPE         =  'RECT'
  GRID%COORD        =  'CART'
  GRID%CLOS         =  'NONE'
  GRID%ZLIM         =  98
  GRID%DMIN         =  0.1
/

! -------------------------------------------------------------------- !
! Define the rectilinear grid type via RECT_NML namelist
! -------------------------------------------------------------------- !
&RECT_NML
  RECT%NX           =  52
  RECT%NY           =  3
  RECT%SX           =  20
  RECT%SY           =  20
  RECT%X0           =  -10
  RECT%Y0           =  -10
/

! -------------------------------------------------------------------- !
! Define the depth to preprocess via DEPTH_NML namelist
! -------------------------------------------------------------------- !
&DEPTH_NML
  DEPTH%SF        =  -1.
  DEPTH%FILENAME  =  '../input_BJ/BathyWW3.dat'
/

! -------------------------------------------------------------------- !
! Define the input boundary points via INBND_COUNT_NML and
!                                      INBND_POINT_NML namelist
! -------------------------------------------------------------------- !
&INBND_COUNT_NML
  INBND_COUNT%N_POINT    =  1
/

&INBND_POINT_NML
  INBND_POINT(1)         =  2 2 F
/

! -------------------------------------------------------------------- !
! WAVEWATCH III - end of namelist                                      !
! -------------------------------------------------------------------- !
