$ WAVEWATCH III Grid output post-processing
$ -----------------------------------------
  19680607 000000 86400. 999
$
  N
  DPT CUR HS 
$
 3 0
$
  2 999 2 2 1 1
