! -------------------------------------------------------------------- !
! WAVEWATCH III - ww3_grid.nml - Grid pre-processing                   !
! -------------------------------------------------------------------- !

! -------------------------------------------------------------------- !
! Define the spectrum parameterization via SPECTRUM_NML namelist
! -------------------------------------------------------------------- !
&SPECTRUM_NML
  SPECTRUM%XFR       =  1.1
  SPECTRUM%FREQ1     =  0.05
  SPECTRUM%NK        =  36
  SPECTRUM%NTH       =  36
/

! -------------------------------------------------------------------- !
! Define the run parameterization via RUN_NML namelist
! -------------------------------------------------------------------- !
&RUN_NML
  RUN%FLCX         =  T
  RUN%FLCY         =  T
/

! -------------------------------------------------------------------- !
! Define the timesteps parameterization via TIMESTEPS_NML namelist
! -------------------------------------------------------------------- !
&TIMESTEPS_NML
  TIMESTEPS%DTMAX        =  1
  TIMESTEPS%DTXY         =  1
  TIMESTEPS%DTKTH        =  1
  TIMESTEPS%DTMIN        =  1
/

! -------------------------------------------------------------------- !
! Define the grid to preprocess via GRID_NML namelist
! -------------------------------------------------------------------- !
&GRID_NML
  GRID%NAME         =  'LIMON'
  GRID%NML          =  '../input/namelists_LIMON.nml'
  GRID%TYPE         =  'UNST'
  GRID%COORD        =  'SPHE'
  GRID%CLOS         =  'NONE'
  GRID%ZLIM         =  1.0
  GRID%DMIN         =  0.10
/

! -------------------------------------------------------------------- !
! Define the unstructured grid type via UNST_NML namelist
! -------------------------------------------------------------------- !
&UNST_NML
  UNST%SF          =  -1.
  UNST%FILENAME    =  './../input/limon_ll.msh'
  UNST%IDLA      =  4
  UNST%FORMAT    =  '(20f10.2)'
/

! -------------------------------------------------------------------- !
! Define the input boundary points via INBND_COUNT_NML and
!                                      INBND_POINT_NML namelist
! -------------------------------------------------------------------- !
&INBND_COUNT_NML
  INBND_COUNT%N_POINT    =  2
/

&INBND_POINT_NML
  INBND_POINT(1)         =  66 1 F
  INBND_POINT(2)         =  99 1 T
/

! -------------------------------------------------------------------- !
! WAVEWATCH III - end of namelist                                      !
! -------------------------------------------------------------------- !
