$ -------------------------------------------------------------------- $
$ WAVEWATCH III Grid output post-processing                            $
$--------------------------------------------------------------------- $
$ First output time (yyyymmdd hhmmss), increment of output (s), 
$ and number of output times.
$
 20020101 000000   60  3600
$
$ Fields requested --------------------------------------------------- $
$
$ Output request flags identifying fields as in ww3_shel.inp. See that
$ file for a full documentation of field output options. Namelist type
$ selection is used here (for alternative F/T flags, see ww3_shel.inp).
$
 N
 HS LM T02 T01 T0M1 UST CHA CGE DTD FC CFX CFD
$
$--------------------------------------------------------------------- $
$ netCDF version [3,4]
$        and variable type 4 [2 = SHORT, 3 = it depends , 4 = REAL]
$ swell partitions [0 1 2 3 4 5]
$ variables in same file [T] or not [F] 
$
 3 4
 0 1 2
 F
$
$ -------------------------------------------------------------------- $
$ File prefix
$ number of characters in date
$ IX, IY range
$
 ww3.
 6
 1 1778 1 1
$
$ For each field and time a new file is generated with the file name
$ ww3.date_xxx.nc , where date is a conventional time indicator with S3
$ characters, and xxx is a field identifier.
$
$ -------------------------------------------------------------------- $
$ End of input file                                                    $
$ -------------------------------------------------------------------- $
