$ WAVEWATCH III Point output post-processing
$ ------------------------------------------
  19680606 000000   3600. 49
$
  20
  -1
$
   2
   2 70
