$ WAVEWATCH III Grid output post-processing
$ -----------------------------------------
  19680601 000000 518400. 5
$
$  F F F F F  T F F F F  F F F F F  F F F F F  F F F F F  F F F F F  F (old form)
$  F F F F F  T F F F F  F F F F F  F F F F F  F F F F F  F F F F F  F F F F F  F F F F F  F F F F (new form with Fabrice changes +13 T/Fs)
  F F F F F  T F F F F  F F F F F  F F F F F  F F F F F  F F F F F  F F F F F  F F F F F  F F F F
$
  1 0
$
  1 360 1 1 3 1 T F F
