$ -------------------------------------------------------------------- $
$ WAVEWATCH III Grid output post-processing                            $
$--------------------------------------------------------------------- $
$ First output time (yyyymmdd hhmmss), increment of output (s),
$ and number of output times.
$
  19680606 000000  10.  10000
$
$ Fields requested --------------------------------------------------- $
$
 N
 HS T02 T0M1 T01 FP DIR SPR DP WBT
$
$--------------------------------------------------------------------- $
$ netCDF version [3,4]
$        and variable type 4 [2 = SHORT, 3 = it depends , 4 = REAL]
$ swell partitions [0 1 2 3 4 5]
$ variables in same file [T] or not [F]
$
 3 3
 0 1 2
 T
$
$ -------------------------------------------------------------------- $
$ File prefix
$ number of characters in date [4(yearly),6(monthly),8(daily),10(hourly)]
$ IX and IY ranges [regular:IX NX IY NY, unstructured:IP NP 1 1]
$
 ww3.
 6
$
$ ---------------- FOR NON-SMC GRIDS --------------------------------- $
$ IX, IY range:
  1 1000000 1 1000000
$
$ For each field and time a new file is generated with the file name
$ ww3.date_xxx.nc , where date is a conventional time indicator with S3
$ characters, and xxx is a field identifier.
$
$ -------------------------------------------------------------------- $
$ End of input file                                                    $
$ -------------------------------------------------------------------- $
