! -------------------------------------------------------------------- !
! WAVEWATCH III ww3_multi.nml - multi-grid model                       !
! -------------------------------------------------------------------- !


! -------------------------------------------------------------------- !
! Define top-level model parameters via DOMAIN_NML namelist
! -------------------------------------------------------------------- !
&DOMAIN_NML
  DOMAIN%FLGHG1 = T
  DOMAIN%FLGHG2 = T
  DOMAIN%START  = '20151025 000000'
  DOMAIN%STOP   = '20151026 000000'
/

! -------------------------------------------------------------------- !
! Define each input grid via the INPUT_GRID_NML namelist
! -------------------------------------------------------------------- !
&INPUT_GRID_NML
/

! -------------------------------------------------------------------- !
! Define each model grid via the MODEL_GRID_NML namelist
! -------------------------------------------------------------------- !
&MODEL_GRID_NML
  MODEL(1)%NAME                  = 'lowres'
  MODEL(1)%FORCING%WINDS         = 'native'
  MODEL(1)%FORCING%ICE_CONC      = 'native'
/

! -------------------------------------------------------------------- !
! Define the output types point parameters via OUTPUT_TYPE_NML namelist
! -------------------------------------------------------------------- !
&OUTPUT_TYPE_NML
  ALLTYPE%FIELD%LIST       = 'HS WND ICE DPT DIR'
  ALLTYPE%POINT%FILE       = '../i_lowres_multi/points.list'
  ALLTYPE%PARTITION        = 0 999 1 0 999 1 F
/

! -------------------------------------------------------------------- !
! Define output dates via OUTPUT_DATE_NML namelist
! -------------------------------------------------------------------- !
&OUTPUT_DATE_NML
  ALLDATE%FIELD          = '20151025 000000' '10800' '20151031 000000'
  ALLDATE%POINT          = '20151025 000000' '10800' '20151031 000000'
  ALLDATE%PARTITION      = '20090525 000000' '36000' '20090526 000000'
/

! -------------------------------------------------------------------- !
! Define homogeneous input via HOMOG_COUNT_NML and HOMOG_INPUT_NML namelist
! -------------------------------------------------------------------- !
&HOMOG_COUNT_NML
/

&HOMOG_INPUT_NML
/

! -------------------------------------------------------------------- !
! WAVEWATCH III - end of namelist                                      !
! -------------------------------------------------------------------- !
