WAVEWATCH III TRACK LOCATIONS DATA 
19680606 000000       0       0    S1A
19680606 040000       1       0    S1B
19680606 060000       1       0    S1C
19680606 080000       2       0    S1D
19680606 120000       0.5     0    S1E
