WAVEWATCH III TRACK LOCATIONS DATA 
20220606 000000       0       0    S1A
20220606 040000       1       0    S1B
20220606 060000       1       0    S1C
20220606 080000       2       0    S1D
20220606 120000       0.5     0    S1E
