WAVEWATCH III TRACK LOCATIONS DATA 
19680606 000000       2      -1
19680606 060000       3       0
19680606 120000       5       0
