$ WAVEWATCH III shell input file
$ ------------------------------
   F T
   F T
   F T
   F
   F
   F
   F
$
   19680606 000000
   19680618 000000
$
   1
$
   19680606 000000  86400  19680618 000000
$
  N
  HS  TE DIR SPR
$
   19680606 000000  21600  19680618 000000
     0.0   0.0   'LEFT      '
    90.0   0.0   'CENTER    '
   180.0   0.0   'RIGHT     '
     0.0   0.0   'STOPSTRING'
   19680606 000000      0  19680618 000000
   19680612 000000      0  19680612 000000
   19680606 000000      0  19680618 000000
   19680612 000000      0  19680612 000000
