$ WAVEWATCH III Point output post-processing
$ ------------------------------------------
  20220606 000000 43200. 25
$
  3
 -1
$
  2
$
  2  53
