$ WAVEWATCH III Grid output post-processing
$ -----------------------------------------
  20220612 000000 518400. 2
$
  N
  HS T01  DIR SPR
$
  1 0
$
  1 193 1 1 93 1 T F F
