$ -------------------------------------------------------------------- $
$ WAVEWATCH III Track output post-processing                           $
$--------------------------------------------------------------------- $
$ The number of wavenumbers and directions need to be read in as they
$                        determine the record length of the data file
$ netCDF type [3-4]
$
  9 24
 3
$
$ -------------------------------------------------------------------- $
$ End of input file                                                    $
$ -------------------------------------------------------------------- $
