! -------------------------------------------------------------------- !
! WAVEWATCH III ww3_trnc.nml - Track output post-processing            !
! -------------------------------------------------------------------- !

! -------------------------------------------------------------------- !
! Define the output fields to postprocess via TRACK_NML namelist
! -------------------------------------------------------------------- !
&TRACK_NML
  TRACK%TIMESTART        =  '19680606 000000'
  TRACK%TIMESTRIDE       =  '3600.'
/

! -------------------------------------------------------------------- !
! Define the content of the input file via FILE_NML namelist
! -------------------------------------------------------------------- !
&FILE_NML
/

! -------------------------------------------------------------------- !
! WAVEWATCH III - end of namelist                                      !
! -------------------------------------------------------------------- !
