$ WAVEWATCH III shell input file
$ ------------------------------
   F T
   F T
   F T
   F
   F
   F
   F
$
   19680606 000000
   19680606 120000
$
   1
$
   19680606 000000  10800  19680608 000000
$
  N
  HS EF  T01 DIR SPR
$
   19680606 000000  21600  19680608 000000
     0.0   0.0   'LEFT      '
    90.0   0.0   'CENTER    '
   180.0   0.0   'RIGHT     '
     0.0   0.0   'STOPSTRING'
   19680606 000000  21600  19680608 000000
   T
   19680606 000000      0  19680608 000000
   19680606 000000      0  19680608 000000
   19680606 000000      0  19680608 000000
