$ WAVEWATCH III Grid output post-processing (GrADS)
$ -------------------------------------------------
$ 19680606 010000 3600. 999
  19680606 060000 21600. 999
$
  N
  DPT WND HS T02 DIR
$
  1 999 1 999  F F
