$ WAVEWATCH III Wind preprocessing
$ --------------------------------
  'WND' 'AI' F T
  19680606 000000
$
  'UNIT' 2 1 '(..T..)' '(..F..)'
  10 'dummy_name '
$
    3.33    3.50    3.67    3.84    4.03    4.22    4.41    4.62    4.82    5.03
    5.23    5.43    5.63    5.82    6.00    6.16    6.31    6.43    6.53    6.61
    6.65    6.67    6.65    6.61    6.53    6.43    6.31    6.16    6.00    5.82
    5.63    5.43    5.23    5.03    4.82    4.62    4.41    4.22    4.03    3.84
    3.67    3.50    3.33    3.33    3.50    3.68    3.87    4.06    4.27    4.48
    4.70    4.92    5.15    5.37    5.60    5.82    6.03    6.24    6.42    6.59
    6.73    6.85    6.93    6.98    7.00    6.98    6.93    6.85    6.73    6.59
    6.42    6.24    6.03    5.82    5.60    5.37    5.15    4.92    4.70    4.48
    4.27    4.06    3.87    3.68    3.50    3.33    3.32    3.50    3.68    3.88
    4.09    4.31    4.54    4.78    5.02    5.27    5.52    5.77    6.02    6.26
    6.49    6.70    6.89    7.06    7.19    7.29    7.35    7.37    7.35    7.29
    7.19    7.06    6.89    6.70    6.49    6.26    6.02    5.77    5.52    5.27
    5.02    4.78    4.54    4.31    4.09    3.88    3.68    3.50    3.32    3.29
    3.48    3.68    3.89    4.11    4.34    4.59    4.85    5.11    5.38    5.66
    5.94    6.22    6.49    6.76    7.00    7.22    7.41    7.57    7.68    7.75
    7.78    7.75    7.68    7.57    7.41    7.22    7.00    6.76    6.49    6.22
    5.94    5.66    5.38    5.11    4.85    4.59    4.34    4.11    3.89    3.68
    3.48    3.29    3.26    3.45    3.66    3.88    4.12    4.37    4.63    4.91
    5.20    5.50    5.80    6.12    6.43    6.74    7.04    7.32    7.58    7.80
    7.99    8.12    8.21    8.24    8.21    8.12    7.99    7.80    7.58    7.32
    7.04    6.74    6.43    6.12    5.80    5.50    5.20    4.91    4.63    4.37
    4.12    3.88    3.66    3.45    3.26    3.21    3.41    3.63    3.86    4.11
    4.38    4.66    4.96    5.27    5.60    5.94    6.29    6.65    7.00    7.34
    7.67    7.97    8.24    8.45    8.62    8.72    8.75    8.72    8.62    8.45
    8.24    7.97    7.67    7.34    7.00    6.65    6.29    5.94    5.60    5.27
    4.96    4.66    4.38    4.11    3.86    3.63    3.41    3.21    3.15    3.36
    3.58    3.83    4.09    4.37    4.67    4.99    5.33    5.69    6.07    6.46
    6.86    7.27    7.66    8.05    8.40    8.71    8.97    9.17    9.29    9.33
    9.29    9.17    8.97    8.71    8.40    8.05    7.66    7.27    6.86    6.46
    6.07    5.69    5.33    4.99    4.67    4.37    4.09    3.83    3.58    3.36
    3.15    3.08    3.29    3.52    3.77    4.04    4.34    4.66    5.00    5.37
    5.76    6.18    6.62    7.08    7.54    8.00    8.45    8.87    9.25    9.56
    9.80    9.95   10.00    9.95    9.80    9.56    9.25    8.87    8.45    8.00
    7.54    7.08    6.62    6.18    5.76    5.37    5.00    4.66    4.34    4.04
    3.77    3.52    3.29    3.08    2.98    3.20    3.43    3.69    3.97    4.28
    4.62    4.99    5.38    5.81    6.28    6.77    7.28    7.81    8.35    8.88
    9.38    9.84   10.22   10.52   10.71   10.77   10.71   10.52   10.22    9.84
    9.38    8.88    8.35    7.81    7.28    6.77    6.28    5.81    5.38    4.99
    4.62    4.28    3.97    3.69    3.43    3.20    2.98    2.87    3.09    3.33
    3.59    3.88    4.20    4.55    4.94    5.37    5.83    6.34    6.89    7.47
    8.08    8.70    9.33    9.94   10.50   10.98   11.35   11.59   11.67   11.59
   11.35   10.98   10.50    9.94    9.33    8.70    8.08    7.47    6.89    6.34
    5.83    5.37    4.94    4.55    4.20    3.88    3.59    3.33    3.09    2.87
    2.74    2.96    3.20    3.46    3.76    4.08    4.45    4.86    5.31    5.81
    6.36    6.97    7.62    8.32    9.06    9.81   10.55   11.24   11.85   12.32
   12.62   12.73   12.62   12.32   11.85   11.24   10.55    9.81    9.06    8.32
    7.62    6.97    6.36    5.81    5.31    4.86    4.45    4.08    3.76    3.46
    3.20    2.96    2.74    2.59    2.80    3.04    3.30    3.60    3.93    4.31
    4.73    5.20    5.74    6.33    7.00    7.73    8.54    9.40   10.29   11.20
   12.07   12.84   13.46   13.86   14.00   13.86   13.46   12.84   12.07   11.20
   10.29    9.40    8.54    7.73    7.00    6.33    5.74    5.20    4.73    4.31
    3.93    3.60    3.30    3.04    2.80    2.59    2.41    2.62    2.85    3.11
    3.41    3.74    4.12    4.55    5.04    5.60    6.24    6.96    7.78    8.69
    9.69   10.77   11.89   12.99   14.00   14.82   15.37   15.56   15.37   14.82
   14.00   12.99   11.89   10.77    9.69    8.69    7.78    6.96    6.24    5.60
    5.04    4.55    4.12    3.74    3.41    3.11    2.85    2.62    2.41    2.22
    2.41    2.64    2.89    3.17    3.50    3.88    4.31    4.81    5.38    6.05
    6.83    7.72    8.75    9.91   11.20   12.58   14.00   15.34   16.47   17.23
   17.50   17.23   16.47   15.34   14.00   12.58   11.20    9.91    8.75    7.72
    6.83    6.05    5.38    4.81    4.31    3.88    3.50    3.17    2.89    2.64
    2.41    2.22    2.00    2.18    2.39    2.63    2.90    3.21    3.58    4.00
    4.50    5.08    5.76    6.58    7.54    8.67   10.00   11.53   13.24   15.08
   16.90   18.49   19.60   20.00   19.60   18.49   16.90   15.08   13.24   11.53
   10.00    8.67    7.54    6.58    5.76    5.08    4.50    4.00    3.58    3.21
    2.90    2.63    2.39    2.18    2.00    1.76    1.93    2.12    2.33    2.58
    2.88    3.22    3.62    4.10    4.67    5.35    6.18    7.18    8.40    9.88
   11.67   13.77   16.15   18.67   21.00   22.70   23.33   22.70   21.00   18.67
   16.15   13.77   11.67    9.88    8.40    7.18    6.18    5.35    4.67    4.10
    3.62    3.22    2.88    2.58    2.33    2.12    1.93    1.76    1.50    1.65
    1.81    2.01    2.23    2.49    2.80    3.17    3.61    4.14    4.79    5.60
    6.60    7.87    9.46   11.48   14.00   17.07   20.59   24.14   26.92   28.00
   26.92   24.14   20.59   17.07   14.00   11.48    9.46    7.87    6.60    5.60
    4.79    4.14    3.61    3.17    2.80    2.49    2.23    2.01    1.81    1.65
    1.50    1.23    1.35    1.49    1.65    1.84    2.06    2.32    2.64    3.03
    3.50    4.09    4.83    5.77    7.00    8.62   10.77   13.66   17.50   22.40
   28.00   32.94   35.00   32.94   28.00   22.40   17.50   13.66   10.77    8.62
    7.00    5.77    4.83    4.09    3.50    3.03    2.64    2.32    2.06    1.84
    1.65    1.49    1.35    1.23    0.93    1.03    1.14    1.26    1.41    1.58
    1.79    2.05    2.36    2.75    3.23    3.85    4.67    5.75    7.24    9.33
   12.35   16.80   23.33   26.25   26.25   26.25   26.25   26.25   23.33   16.80
   12.35    9.33    7.24    5.75    4.67    3.85    3.23    2.75    2.36    2.05
    1.79    1.58    1.41    1.26    1.14    1.03    0.93    0.63    0.69    0.77
    0.85    0.96    1.08    1.22    1.40    1.62    1.89    2.24    2.69    3.29
    4.12    5.28    7.00    9.66   14.00   17.50   17.50   17.50   17.50   17.50
   17.50   17.50   14.00    9.66    7.00    5.28    4.12    3.29    2.69    2.24
    1.89    1.62    1.40    1.22    1.08    0.96    0.85    0.77    0.69    0.63
    0.32    0.35    0.39    0.43    0.48    0.54    0.62    0.71    0.82    0.97
    1.15    1.39    1.71    2.15    2.80    3.78    5.38    8.24    8.75    8.75
    8.75    8.75    8.75    8.75    8.75    8.24    5.38    3.78    2.80    2.15
    1.71    1.39    1.15    0.97    0.82    0.71    0.62    0.54    0.48    0.43
    0.39    0.35    0.32   -0.00   -0.00   -0.00   -0.00   -0.00   -0.00   -0.00
   -0.00   -0.00   -0.00   -0.00   -0.00   -0.00   -0.00   -0.00   -0.00   -0.00
   -0.00   -0.00   -0.00   -0.00    0.00   -0.00   -0.00   -0.00   -0.00   -0.00
   -0.00   -0.00   -0.00   -0.00   -0.00   -0.00   -0.00   -0.00   -0.00   -0.00
   -0.00   -0.00   -0.00   -0.00   -0.00   -0.00   -0.32   -0.35   -0.39   -0.43
   -0.48   -0.54   -0.62   -0.71   -0.82   -0.97   -1.15   -1.39   -1.71   -2.15
   -2.80   -3.78   -5.38   -8.24   -8.75   -8.75   -8.75   -8.75   -8.75   -8.75
   -8.75   -8.24   -5.38   -3.78   -2.80   -2.15   -1.71   -1.39   -1.15   -0.97
   -0.82   -0.71   -0.62   -0.54   -0.48   -0.43   -0.39   -0.35   -0.32   -0.63
   -0.69   -0.77   -0.85   -0.96   -1.08   -1.22   -1.40   -1.62   -1.89   -2.24
   -2.69   -3.29   -4.12   -5.28   -7.00   -9.66  -14.00  -17.50  -17.50  -17.50
  -17.50  -17.50  -17.50  -17.50  -14.00   -9.66   -7.00   -5.28   -4.12   -3.29
   -2.69   -2.24   -1.89   -1.62   -1.40   -1.22   -1.08   -0.96   -0.85   -0.77
   -0.69   -0.63   -0.93   -1.03   -1.14   -1.26   -1.41   -1.58   -1.79   -2.05
   -2.36   -2.75   -3.23   -3.85   -4.67   -5.75   -7.24   -9.33  -12.35  -16.80
  -23.33  -26.25  -26.25  -26.25  -26.25  -26.25  -23.33  -16.80  -12.35   -9.33
   -7.24   -5.75   -4.67   -3.85   -3.23   -2.75   -2.36   -2.05   -1.79   -1.58
   -1.41   -1.26   -1.14   -1.03   -0.93   -1.23   -1.35   -1.49   -1.65   -1.84
   -2.06   -2.32   -2.64   -3.03   -3.50   -4.09   -4.83   -5.77   -7.00   -8.62
  -10.77  -13.66  -17.50  -22.40  -28.00  -32.94  -35.00  -32.94  -28.00  -22.40
  -17.50  -13.66  -10.77   -8.62   -7.00   -5.77   -4.83   -4.09   -3.50   -3.03
   -2.64   -2.32   -2.06   -1.84   -1.65   -1.49   -1.35   -1.23   -1.50   -1.65
   -1.81   -2.01   -2.23   -2.49   -2.80   -3.17   -3.61   -4.14   -4.79   -5.60
   -6.60   -7.87   -9.46  -11.48  -14.00  -17.07  -20.59  -24.14  -26.92  -28.00
  -26.92  -24.14  -20.59  -17.07  -14.00  -11.48   -9.46   -7.87   -6.60   -5.60
   -4.79   -4.14   -3.61   -3.17   -2.80   -2.49   -2.23   -2.01   -1.81   -1.65
   -1.50   -1.76   -1.93   -2.12   -2.33   -2.58   -2.88   -3.22   -3.62   -4.10
   -4.67   -5.35   -6.18   -7.18   -8.40   -9.88  -11.67  -13.77  -16.15  -18.67
  -21.00  -22.70  -23.33  -22.70  -21.00  -18.67  -16.15  -13.77  -11.67   -9.88
   -8.40   -7.18   -6.18   -5.35   -4.67   -4.10   -3.62   -3.22   -2.88   -2.58
   -2.33   -2.12   -1.93   -1.76   -2.00   -2.18   -2.39   -2.63   -2.90   -3.21
   -3.58   -4.00   -4.50   -5.08   -5.76   -6.58   -7.54   -8.67  -10.00  -11.53
  -13.24  -15.08  -16.90  -18.49  -19.60  -20.00  -19.60  -18.49  -16.90  -15.08
  -13.24  -11.53  -10.00   -8.67   -7.54   -6.58   -5.76   -5.08   -4.50   -4.00
   -3.58   -3.21   -2.90   -2.63   -2.39   -2.18   -2.00   -2.22   -2.41   -2.64
   -2.89   -3.17   -3.50   -3.88   -4.31   -4.81   -5.38   -6.05   -6.83   -7.72
   -8.75   -9.91  -11.20  -12.58  -14.00  -15.34  -16.47  -17.23  -17.50  -17.23
  -16.47  -15.34  -14.00  -12.58  -11.20   -9.91   -8.75   -7.72   -6.83   -6.05
   -5.38   -4.81   -4.31   -3.88   -3.50   -3.17   -2.89   -2.64   -2.41   -2.22
   -2.41   -2.62   -2.85   -3.11   -3.41   -3.74   -4.12   -4.55   -5.04   -5.60
   -6.24   -6.96   -7.78   -8.69   -9.69  -10.77  -11.89  -12.99  -14.00  -14.82
  -15.37  -15.56  -15.37  -14.82  -14.00  -12.99  -11.89  -10.77   -9.69   -8.69
   -7.78   -6.96   -6.24   -5.60   -5.04   -4.55   -4.12   -3.74   -3.41   -3.11
   -2.85   -2.62   -2.41   -2.59   -2.80   -3.04   -3.30   -3.60   -3.93   -4.31
   -4.73   -5.20   -5.74   -6.33   -7.00   -7.73   -8.54   -9.40  -10.29  -11.20
  -12.07  -12.84  -13.46  -13.86  -14.00  -13.86  -13.46  -12.84  -12.07  -11.20
  -10.29   -9.40   -8.54   -7.73   -7.00   -6.33   -5.74   -5.20   -4.73   -4.31
   -3.93   -3.60   -3.30   -3.04   -2.80   -2.59   -2.74   -2.96   -3.20   -3.46
   -3.76   -4.08   -4.45   -4.86   -5.31   -5.81   -6.36   -6.97   -7.62   -8.32
   -9.06   -9.81  -10.55  -11.24  -11.85  -12.32  -12.62  -12.73  -12.62  -12.32
  -11.85  -11.24  -10.55   -9.81   -9.06   -8.32   -7.62   -6.97   -6.36   -5.81
   -5.31   -4.86   -4.45   -4.08   -3.76   -3.46   -3.20   -2.96   -2.74   -2.87
   -3.09   -3.33   -3.59   -3.88   -4.20   -4.55   -4.94   -5.37   -5.83   -6.34
   -6.89   -7.47   -8.08   -8.70   -9.33   -9.94  -10.50  -10.98  -11.35  -11.59
  -11.67  -11.59  -11.35  -10.98  -10.50   -9.94   -9.33   -8.70   -8.08   -7.47
   -6.89   -6.34   -5.83   -5.37   -4.94   -4.55   -4.20   -3.88   -3.59   -3.33
   -3.09   -2.87   -2.98   -3.20   -3.43   -3.69   -3.97   -4.28   -4.62   -4.99
   -5.38   -5.81   -6.28   -6.77   -7.28   -7.81   -8.35   -8.88   -9.38   -9.84
  -10.22  -10.52  -10.71  -10.77  -10.71  -10.52  -10.22   -9.84   -9.38   -8.88
   -8.35   -7.81   -7.28   -6.77   -6.28   -5.81   -5.38   -4.99   -4.62   -4.28
   -3.97   -3.69   -3.43   -3.20   -2.98   -3.08   -3.29   -3.52   -3.77   -4.04
   -4.34   -4.66   -5.00   -5.37   -5.76   -6.18   -6.62   -7.08   -7.54   -8.00
   -8.45   -8.87   -9.25   -9.56   -9.80   -9.95  -10.00   -9.95   -9.80   -9.56
   -9.25   -8.87   -8.45   -8.00   -7.54   -7.08   -6.62   -6.18   -5.76   -5.37
   -5.00   -4.66   -4.34   -4.04   -3.77   -3.52   -3.29   -3.08   -3.15   -3.36
   -3.58   -3.83   -4.09   -4.37   -4.67   -4.99   -5.33   -5.69   -6.07   -6.46
   -6.86   -7.27   -7.66   -8.05   -8.40   -8.71   -8.97   -9.17   -9.29   -9.33
   -9.29   -9.17   -8.97   -8.71   -8.40   -8.05   -7.66   -7.27   -6.86   -6.46
   -6.07   -5.69   -5.33   -4.99   -4.67   -4.37   -4.09   -3.83   -3.58   -3.36
   -3.15   -3.21   -3.41   -3.63   -3.86   -4.11   -4.38   -4.66   -4.96   -5.27
   -5.60   -5.94   -6.29   -6.65   -7.00   -7.34   -7.67   -7.97   -8.24   -8.45
   -8.62   -8.72   -8.75   -8.72   -8.62   -8.45   -8.24   -7.97   -7.67   -7.34
   -7.00   -6.65   -6.29   -5.94   -5.60   -5.27   -4.96   -4.66   -4.38   -4.11
   -3.86   -3.63   -3.41   -3.21   -3.26   -3.45   -3.66   -3.88   -4.12   -4.37
   -4.63   -4.91   -5.20   -5.50   -5.80   -6.12   -6.43   -6.74   -7.04   -7.32
   -7.58   -7.80   -7.99   -8.12   -8.21   -8.24   -8.21   -8.12   -7.99   -7.80
   -7.58   -7.32   -7.04   -6.74   -6.43   -6.12   -5.80   -5.50   -5.20   -4.91
   -4.63   -4.37   -4.12   -3.88   -3.66   -3.45   -3.26   -3.29   -3.48   -3.68
   -3.89   -4.11   -4.34   -4.59   -4.85   -5.11   -5.38   -5.66   -5.94   -6.22
   -6.49   -6.76   -7.00   -7.22   -7.41   -7.57   -7.68   -7.75   -7.78   -7.75
   -7.68   -7.57   -7.41   -7.22   -7.00   -6.76   -6.49   -6.22   -5.94   -5.66
   -5.38   -5.11   -4.85   -4.59   -4.34   -4.11   -3.89   -3.68   -3.48   -3.29
   -3.32   -3.50   -3.68   -3.88   -4.09   -4.31   -4.54   -4.78   -5.02   -5.27
   -5.52   -5.77   -6.02   -6.26   -6.49   -6.70   -6.89   -7.06   -7.19   -7.29
   -7.35   -7.37   -7.35   -7.29   -7.19   -7.06   -6.89   -6.70   -6.49   -6.26
   -6.02   -5.77   -5.52   -5.27   -5.02   -4.78   -4.54   -4.31   -4.09   -3.88
   -3.68   -3.50   -3.32   -3.33   -3.50   -3.68   -3.87   -4.06   -4.27   -4.48
   -4.70   -4.92   -5.15   -5.37   -5.60   -5.82   -6.03   -6.24   -6.42   -6.59
   -6.73   -6.85   -6.93   -6.98   -7.00   -6.98   -6.93   -6.85   -6.73   -6.59
   -6.42   -6.24   -6.03   -5.82   -5.60   -5.37   -5.15   -4.92   -4.70   -4.48
   -4.27   -4.06   -3.87   -3.68   -3.50   -3.33   -3.33   -3.50   -3.67   -3.84
   -4.03   -4.22   -4.41   -4.62   -4.82   -5.03   -5.23   -5.43   -5.63   -5.82
   -6.00   -6.16   -6.31   -6.43   -6.53   -6.61   -6.65   -6.67   -6.65   -6.61
   -6.53   -6.43   -6.31   -6.16   -6.00   -5.82   -5.63   -5.43   -5.23   -5.03
   -4.82   -4.62   -4.41   -4.22   -4.03   -3.84   -3.67   -3.50   -3.33
   -3.33   -3.33   -3.32   -3.29   -3.26   -3.21   -3.15   -3.08   -2.98   -2.87
   -2.74   -2.59   -2.41   -2.22   -2.00   -1.76   -1.50   -1.23   -0.93   -0.63
   -0.32    0.00    0.32    0.63    0.93    1.23    1.50    1.76    2.00    2.22
    2.41    2.59    2.74    2.87    2.98    3.08    3.15    3.21    3.26    3.29
    3.32    3.33    3.33   -3.50   -3.50   -3.50   -3.48   -3.45   -3.41   -3.36
   -3.29   -3.20   -3.09   -2.96   -2.80   -2.62   -2.41   -2.18   -1.93   -1.65
   -1.35   -1.03   -0.69   -0.35    0.00    0.35    0.69    1.03    1.35    1.65
    1.93    2.18    2.41    2.62    2.80    2.96    3.09    3.20    3.29    3.36
    3.41    3.45    3.48    3.50    3.50    3.50   -3.67   -3.68   -3.68   -3.68
   -3.66   -3.63   -3.58   -3.52   -3.43   -3.33   -3.20   -3.04   -2.85   -2.64
   -2.39   -2.12   -1.81   -1.49   -1.14   -0.77   -0.39    0.00    0.39    0.77
    1.14    1.49    1.81    2.12    2.39    2.64    2.85    3.04    3.20    3.33
    3.43    3.52    3.58    3.63    3.66    3.68    3.68    3.68    3.67   -3.84
   -3.87   -3.88   -3.89   -3.88   -3.86   -3.83   -3.77   -3.69   -3.59   -3.46
   -3.30   -3.11   -2.89   -2.63   -2.33   -2.01   -1.65   -1.26   -0.85   -0.43
    0.00    0.43    0.85    1.26    1.65    2.01    2.33    2.63    2.89    3.11
    3.30    3.46    3.59    3.69    3.77    3.83    3.86    3.88    3.89    3.88
    3.87    3.84   -4.03   -4.06   -4.09   -4.11   -4.12   -4.11   -4.09   -4.04
   -3.97   -3.88   -3.76   -3.60   -3.41   -3.17   -2.90   -2.58   -2.23   -1.84
   -1.41   -0.96   -0.48    0.00    0.48    0.96    1.41    1.84    2.23    2.58
    2.90    3.17    3.41    3.60    3.76    3.88    3.97    4.04    4.09    4.11
    4.12    4.11    4.09    4.06    4.03   -4.22   -4.27   -4.31   -4.34   -4.37
   -4.38   -4.37   -4.34   -4.28   -4.20   -4.08   -3.93   -3.74   -3.50   -3.21
   -2.88   -2.49   -2.06   -1.58   -1.08   -0.54    0.00    0.54    1.08    1.58
    2.06    2.49    2.88    3.21    3.50    3.74    3.93    4.08    4.20    4.28
    4.34    4.37    4.38    4.37    4.34    4.31    4.27    4.22   -4.41   -4.48
   -4.54   -4.59   -4.63   -4.66   -4.67   -4.66   -4.62   -4.55   -4.45   -4.31
   -4.12   -3.88   -3.58   -3.22   -2.80   -2.32   -1.79   -1.22   -0.62    0.00
    0.62    1.22    1.79    2.32    2.80    3.22    3.58    3.88    4.12    4.31
    4.45    4.55    4.62    4.66    4.67    4.66    4.63    4.59    4.54    4.48
    4.41   -4.62   -4.70   -4.78   -4.85   -4.91   -4.96   -4.99   -5.00   -4.99
   -4.94   -4.86   -4.73   -4.55   -4.31   -4.00   -3.62   -3.17   -2.64   -2.05
   -1.40   -0.71    0.00    0.71    1.40    2.05    2.64    3.17    3.62    4.00
    4.31    4.55    4.73    4.86    4.94    4.99    5.00    4.99    4.96    4.91
    4.85    4.78    4.70    4.62   -4.82   -4.92   -5.02   -5.11   -5.20   -5.27
   -5.33   -5.37   -5.38   -5.37   -5.31   -5.20   -5.04   -4.81   -4.50   -4.10
   -3.61   -3.03   -2.36   -1.62   -0.82    0.00    0.82    1.62    2.36    3.03
    3.61    4.10    4.50    4.81    5.04    5.20    5.31    5.37    5.38    5.37
    5.33    5.27    5.20    5.11    5.02    4.92    4.82   -5.03   -5.15   -5.27
   -5.38   -5.50   -5.60   -5.69   -5.76   -5.81   -5.83   -5.81   -5.74   -5.60
   -5.38   -5.08   -4.67   -4.14   -3.50   -2.75   -1.89   -0.97    0.00    0.97
    1.89    2.75    3.50    4.14    4.67    5.08    5.38    5.60    5.74    5.81
    5.83    5.81    5.76    5.69    5.60    5.50    5.38    5.27    5.15    5.03
   -5.23   -5.37   -5.52   -5.66   -5.80   -5.94   -6.07   -6.18   -6.28   -6.34
   -6.36   -6.33   -6.24   -6.05   -5.76   -5.35   -4.79   -4.09   -3.23   -2.24
   -1.15    0.00    1.15    2.24    3.23    4.09    4.79    5.35    5.76    6.05
    6.24    6.33    6.36    6.34    6.28    6.18    6.07    5.94    5.80    5.66
    5.52    5.37    5.23   -5.43   -5.60   -5.77   -5.94   -6.12   -6.29   -6.46
   -6.62   -6.77   -6.89   -6.97   -7.00   -6.96   -6.83   -6.58   -6.18   -5.60
   -4.83   -3.85   -2.69   -1.39    0.00    1.39    2.69    3.85    4.83    5.60
    6.18    6.58    6.83    6.96    7.00    6.97    6.89    6.77    6.62    6.46
    6.29    6.12    5.94    5.77    5.60    5.43   -5.63   -5.82   -6.02   -6.22
   -6.43   -6.65   -6.86   -7.08   -7.28   -7.47   -7.62   -7.73   -7.78   -7.72
   -7.54   -7.18   -6.60   -5.77   -4.67   -3.29   -1.71    0.00    1.71    3.29
    4.67    5.77    6.60    7.18    7.54    7.72    7.78    7.73    7.62    7.47
    7.28    7.08    6.86    6.65    6.43    6.22    6.02    5.82    5.63   -5.82
   -6.03   -6.26   -6.49   -6.74   -7.00   -7.27   -7.54   -7.81   -8.08   -8.32
   -8.54   -8.69   -8.75   -8.67   -8.40   -7.87   -7.00   -5.75   -4.12   -2.15
    0.00    2.15    4.12    5.75    7.00    7.87    8.40    8.67    8.75    8.69
    8.54    8.32    8.08    7.81    7.54    7.27    7.00    6.74    6.49    6.26
    6.03    5.82   -6.00   -6.24   -6.49   -6.76   -7.04   -7.34   -7.66   -8.00
   -8.35   -8.70   -9.06   -9.40   -9.69   -9.91  -10.00   -9.88   -9.46   -8.62
   -7.24   -5.28   -2.80    0.00    2.80    5.28    7.24    8.62    9.46    9.88
   10.00    9.91    9.69    9.40    9.06    8.70    8.35    8.00    7.66    7.34
    7.04    6.76    6.49    6.24    6.00   -6.16   -6.42   -6.70   -7.00   -7.32
   -7.67   -8.05   -8.45   -8.88   -9.33   -9.81  -10.29  -10.77  -11.20  -11.53
  -11.67  -11.48  -10.77   -9.33   -7.00   -3.78    0.00    3.78    7.00    9.33
   10.77   11.48   11.67   11.53   11.20   10.77   10.29    9.81    9.33    8.88
    8.45    8.05    7.67    7.32    7.00    6.70    6.42    6.16   -6.31   -6.59
   -6.89   -7.22   -7.58   -7.97   -8.40   -8.87   -9.38   -9.94  -10.55  -11.20
  -11.89  -12.58  -13.24  -13.77  -14.00  -13.66  -12.35   -9.66   -5.38    0.00
    5.38    9.66   12.35   13.66   14.00   13.77   13.24   12.58   11.89   11.20
   10.55    9.94    9.38    8.87    8.40    7.97    7.58    7.22    6.89    6.59
    6.31   -6.43   -6.73   -7.06   -7.41   -7.80   -8.24   -8.71   -9.25   -9.84
  -10.50  -11.24  -12.07  -12.99  -14.00  -15.08  -16.15  -17.07  -17.50  -16.80
  -14.00   -8.24    0.00    8.24   14.00   16.80   17.50   17.07   16.15   15.08
   14.00   12.99   12.07   11.24   10.50    9.84    9.25    8.71    8.24    7.80
    7.41    7.06    6.73    6.43   -6.53   -6.85   -7.19   -7.57   -7.99   -8.45
   -8.97   -9.56  -10.22  -10.98  -11.85  -12.84  -14.00  -15.34  -16.90  -18.67
  -20.59  -22.40  -23.33  -17.50   -8.75    0.00    8.75   17.50   23.33   22.40
   20.59   18.67   16.90   15.34   14.00   12.84   11.85   10.98   10.22    9.56
    8.97    8.45    7.99    7.57    7.19    6.85    6.53   -6.61   -6.93   -7.29
   -7.68   -8.12   -8.62   -9.17   -9.80  -10.52  -11.35  -12.32  -13.46  -14.82
  -16.47  -18.49  -21.00  -24.14  -28.00  -26.25  -17.50   -8.75    0.00    8.75
   17.50   26.25   28.00   24.14   21.00   18.49   16.47   14.82   13.46   12.32
   11.35   10.52    9.80    9.17    8.62    8.12    7.68    7.29    6.93    6.61
   -6.65   -6.98   -7.35   -7.75   -8.21   -8.72   -9.29   -9.95  -10.71  -11.59
  -12.62  -13.86  -15.37  -17.23  -19.60  -22.70  -26.92  -32.94  -26.25  -17.50
   -8.75    0.00    8.75   17.50   26.25   32.94   26.92   22.70   19.60   17.23
   15.37   13.86   12.62   11.59   10.71    9.95    9.29    8.72    8.21    7.75
    7.35    6.98    6.65   -6.67   -7.00   -7.37   -7.78   -8.24   -8.75   -9.33
  -10.00  -10.77  -11.67  -12.73  -14.00  -15.56  -17.50  -20.00  -23.33  -28.00
  -35.00  -26.25  -17.50   -8.75    0.00    8.75   17.50   26.25   35.00   28.00
   23.33   20.00   17.50   15.56   14.00   12.73   11.67   10.77   10.00    9.33
    8.75    8.24    7.78    7.37    7.00    6.67   -6.65   -6.98   -7.35   -7.75
   -8.21   -8.72   -9.29   -9.95  -10.71  -11.59  -12.62  -13.86  -15.37  -17.23
  -19.60  -22.70  -26.92  -32.94  -26.25  -17.50   -8.75    0.00    8.75   17.50
   26.25   32.94   26.92   22.70   19.60   17.23   15.37   13.86   12.62   11.59
   10.71    9.95    9.29    8.72    8.21    7.75    7.35    6.98    6.65   -6.61
   -6.93   -7.29   -7.68   -8.12   -8.62   -9.17   -9.80  -10.52  -11.35  -12.32
  -13.46  -14.82  -16.47  -18.49  -21.00  -24.14  -28.00  -26.25  -17.50   -8.75
    0.00    8.75   17.50   26.25   28.00   24.14   21.00   18.49   16.47   14.82
   13.46   12.32   11.35   10.52    9.80    9.17    8.62    8.12    7.68    7.29
    6.93    6.61   -6.53   -6.85   -7.19   -7.57   -7.99   -8.45   -8.97   -9.56
  -10.22  -10.98  -11.85  -12.84  -14.00  -15.34  -16.90  -18.67  -20.59  -22.40
  -23.33  -17.50   -8.75    0.00    8.75   17.50   23.33   22.40   20.59   18.67
   16.90   15.34   14.00   12.84   11.85   10.98   10.22    9.56    8.97    8.45
    7.99    7.57    7.19    6.85    6.53   -6.43   -6.73   -7.06   -7.41   -7.80
   -8.24   -8.71   -9.25   -9.84  -10.50  -11.24  -12.07  -12.99  -14.00  -15.08
  -16.15  -17.07  -17.50  -16.80  -14.00   -8.24    0.00    8.24   14.00   16.80
   17.50   17.07   16.15   15.08   14.00   12.99   12.07   11.24   10.50    9.84
    9.25    8.71    8.24    7.80    7.41    7.06    6.73    6.43   -6.31   -6.59
   -6.89   -7.22   -7.58   -7.97   -8.40   -8.87   -9.38   -9.94  -10.55  -11.20
  -11.89  -12.58  -13.24  -13.77  -14.00  -13.66  -12.35   -9.66   -5.38    0.00
    5.38    9.66   12.35   13.66   14.00   13.77   13.24   12.58   11.89   11.20
   10.55    9.94    9.38    8.87    8.40    7.97    7.58    7.22    6.89    6.59
    6.31   -6.16   -6.42   -6.70   -7.00   -7.32   -7.67   -8.05   -8.45   -8.88
   -9.33   -9.81  -10.29  -10.77  -11.20  -11.53  -11.67  -11.48  -10.77   -9.33
   -7.00   -3.78    0.00    3.78    7.00    9.33   10.77   11.48   11.67   11.53
   11.20   10.77   10.29    9.81    9.33    8.88    8.45    8.05    7.67    7.32
    7.00    6.70    6.42    6.16   -6.00   -6.24   -6.49   -6.76   -7.04   -7.34
   -7.66   -8.00   -8.35   -8.70   -9.06   -9.40   -9.69   -9.91  -10.00   -9.88
   -9.46   -8.62   -7.24   -5.28   -2.80    0.00    2.80    5.28    7.24    8.62
    9.46    9.88   10.00    9.91    9.69    9.40    9.06    8.70    8.35    8.00
    7.66    7.34    7.04    6.76    6.49    6.24    6.00   -5.82   -6.03   -6.26
   -6.49   -6.74   -7.00   -7.27   -7.54   -7.81   -8.08   -8.32   -8.54   -8.69
   -8.75   -8.67   -8.40   -7.87   -7.00   -5.75   -4.12   -2.15    0.00    2.15
    4.12    5.75    7.00    7.87    8.40    8.67    8.75    8.69    8.54    8.32
    8.08    7.81    7.54    7.27    7.00    6.74    6.49    6.26    6.03    5.82
   -5.63   -5.82   -6.02   -6.22   -6.43   -6.65   -6.86   -7.08   -7.28   -7.47
   -7.62   -7.73   -7.78   -7.72   -7.54   -7.18   -6.60   -5.77   -4.67   -3.29
   -1.71    0.00    1.71    3.29    4.67    5.77    6.60    7.18    7.54    7.72
    7.78    7.73    7.62    7.47    7.28    7.08    6.86    6.65    6.43    6.22
    6.02    5.82    5.63   -5.43   -5.60   -5.77   -5.94   -6.12   -6.29   -6.46
   -6.62   -6.77   -6.89   -6.97   -7.00   -6.96   -6.83   -6.58   -6.18   -5.60
   -4.83   -3.85   -2.69   -1.39    0.00    1.39    2.69    3.85    4.83    5.60
    6.18    6.58    6.83    6.96    7.00    6.97    6.89    6.77    6.62    6.46
    6.29    6.12    5.94    5.77    5.60    5.43   -5.23   -5.37   -5.52   -5.66
   -5.80   -5.94   -6.07   -6.18   -6.28   -6.34   -6.36   -6.33   -6.24   -6.05
   -5.76   -5.35   -4.79   -4.09   -3.23   -2.24   -1.15    0.00    1.15    2.24
    3.23    4.09    4.79    5.35    5.76    6.05    6.24    6.33    6.36    6.34
    6.28    6.18    6.07    5.94    5.80    5.66    5.52    5.37    5.23   -5.03
   -5.15   -5.27   -5.38   -5.50   -5.60   -5.69   -5.76   -5.81   -5.83   -5.81
   -5.74   -5.60   -5.38   -5.08   -4.67   -4.14   -3.50   -2.75   -1.89   -0.97
    0.00    0.97    1.89    2.75    3.50    4.14    4.67    5.08    5.38    5.60
    5.74    5.81    5.83    5.81    5.76    5.69    5.60    5.50    5.38    5.27
    5.15    5.03   -4.82   -4.92   -5.02   -5.11   -5.20   -5.27   -5.33   -5.37
   -5.38   -5.37   -5.31   -5.20   -5.04   -4.81   -4.50   -4.10   -3.61   -3.03
   -2.36   -1.62   -0.82    0.00    0.82    1.62    2.36    3.03    3.61    4.10
    4.50    4.81    5.04    5.20    5.31    5.37    5.38    5.37    5.33    5.27
    5.20    5.11    5.02    4.92    4.82   -4.62   -4.70   -4.78   -4.85   -4.91
   -4.96   -4.99   -5.00   -4.99   -4.94   -4.86   -4.73   -4.55   -4.31   -4.00
   -3.62   -3.17   -2.64   -2.05   -1.40   -0.71    0.00    0.71    1.40    2.05
    2.64    3.17    3.62    4.00    4.31    4.55    4.73    4.86    4.94    4.99
    5.00    4.99    4.96    4.91    4.85    4.78    4.70    4.62   -4.41   -4.48
   -4.54   -4.59   -4.63   -4.66   -4.67   -4.66   -4.62   -4.55   -4.45   -4.31
   -4.12   -3.88   -3.58   -3.22   -2.80   -2.32   -1.79   -1.22   -0.62    0.00
    0.62    1.22    1.79    2.32    2.80    3.22    3.58    3.88    4.12    4.31
    4.45    4.55    4.62    4.66    4.67    4.66    4.63    4.59    4.54    4.48
    4.41   -4.22   -4.27   -4.31   -4.34   -4.37   -4.38   -4.37   -4.34   -4.28
   -4.20   -4.08   -3.93   -3.74   -3.50   -3.21   -2.88   -2.49   -2.06   -1.58
   -1.08   -0.54    0.00    0.54    1.08    1.58    2.06    2.49    2.88    3.21
    3.50    3.74    3.93    4.08    4.20    4.28    4.34    4.37    4.38    4.37
    4.34    4.31    4.27    4.22   -4.03   -4.06   -4.09   -4.11   -4.12   -4.11
   -4.09   -4.04   -3.97   -3.88   -3.76   -3.60   -3.41   -3.17   -2.90   -2.58
   -2.23   -1.84   -1.41   -0.96   -0.48    0.00    0.48    0.96    1.41    1.84
    2.23    2.58    2.90    3.17    3.41    3.60    3.76    3.88    3.97    4.04
    4.09    4.11    4.12    4.11    4.09    4.06    4.03   -3.84   -3.87   -3.88
   -3.89   -3.88   -3.86   -3.83   -3.77   -3.69   -3.59   -3.46   -3.30   -3.11
   -2.89   -2.63   -2.33   -2.01   -1.65   -1.26   -0.85   -0.43    0.00    0.43
    0.85    1.26    1.65    2.01    2.33    2.63    2.89    3.11    3.30    3.46
    3.59    3.69    3.77    3.83    3.86    3.88    3.89    3.88    3.87    3.84
   -3.67   -3.68   -3.68   -3.68   -3.66   -3.63   -3.58   -3.52   -3.43   -3.33
   -3.20   -3.04   -2.85   -2.64   -2.39   -2.12   -1.81   -1.49   -1.14   -0.77
   -0.39    0.00    0.39    0.77    1.14    1.49    1.81    2.12    2.39    2.64
    2.85    3.04    3.20    3.33    3.43    3.52    3.58    3.63    3.66    3.68
    3.68    3.68    3.67   -3.50   -3.50   -3.50   -3.48   -3.45   -3.41   -3.36
   -3.29   -3.20   -3.09   -2.96   -2.80   -2.62   -2.41   -2.18   -1.93   -1.65
   -1.35   -1.03   -0.69   -0.35    0.00    0.35    0.69    1.03    1.35    1.65
    1.93    2.18    2.41    2.62    2.80    2.96    3.09    3.20    3.29    3.36
    3.41    3.45    3.48    3.50    3.50    3.50   -3.33   -3.33   -3.32   -3.29
   -3.26   -3.21   -3.15   -3.08   -2.98   -2.87   -2.74   -2.59   -2.41   -2.22
   -2.00   -1.76   -1.50   -1.23   -0.93   -0.63   -0.32    0.00    0.32    0.63
    0.93    1.23    1.50    1.76    2.00    2.22    2.41    2.59    2.74    2.87
    2.98    3.08    3.15    3.21    3.26    3.29    3.32    3.33    3.33
