$ -------------------------------------------------------------------- $
$ WAVEWATCH III Grid preprocessor input file                           $
$ -------------------------------------------------------------------- $
$
  'GFSv16-wave Global 1/6 deg exchange grid'
$
  1.10  0.035  36  36  0.5
$
   F T T T T T
$
   3600. 1800. 1800. 30.                              
$
  &SIN4 TAUWSHELTER = 0 /
END OF NAMELISTS
$
    'RECT' T 'SMPL'
   2160   1081
      1.     1.     6.
      0.   -90.     1.
     -0.1  2.50  10  -1000.  2 1 '(....)' 'UNIT' 'dummy'
$
  2334960*1
$
   10 3 1 '(....)' 'PART' 'dummy'
$
      0   0   F
      0   0   F
      0   0
      0.  0.  0.  0.   0
$
$ -------------------------------------------------------------------- $
$ End of input file                                                    $
$ -------------------------------------------------------------------- $
