! -------------------------------------------------------------------- !
! WAVEWATCH III - ww3_grid.nml - Grid pre-processing                   !
! -------------------------------------------------------------------- !

! -------------------------------------------------------------------- !
! Define the spectrum parameterization via SPECTRUM_NML namelist
! -------------------------------------------------------------------- !
&SPECTRUM_NML
  SPECTRUM%XFR       =  1.07
  SPECTRUM%FREQ1     =  0.035
  SPECTRUM%NK        =  50
  SPECTRUM%NTH       =  36
  SPECTRUM%THOFF     =  0.5
/

! -------------------------------------------------------------------- !
! Define the run parameterization via RUN_NML namelist
! -------------------------------------------------------------------- !
&RUN_NML
  RUN%FLCX         =  T
  RUN%FLCY         =  T
  RUN%FLCTH        =  T
  RUN%FLSOU        =  T
/

! -------------------------------------------------------------------- !
! Define the timesteps parameterization via TIMESTEPS_NML namelist
! -------------------------------------------------------------------- !
&TIMESTEPS_NML
  TIMESTEPS%DTMAX        =  900.
  TIMESTEPS%DTXY         =  300.
  TIMESTEPS%DTKTH        =  600.
  TIMESTEPS%DTMIN        =  30.
/

! -------------------------------------------------------------------- !
! Define the grid to preprocess via GRID_NML namelist
! -------------------------------------------------------------------- !
&GRID_NML
  GRID%NAME         =  'Arctic Ocean PolarStereo 9km'
  GRID%NML          =  '../input/namelists_aoc_9km.nml'
  GRID%TYPE         =  'CURV'
  GRID%COORD        =  'SPHE'
  GRID%CLOS         =  'NONE'
  GRID%ZLIM         =  -0.1
  GRID%DMIN         =  2.50
/

! -------------------------------------------------------------------- !
! Define the curvilinear grid type via CURV_NML namelist
! -------------------------------------------------------------------- !
&CURV_NML
  CURV%NX              =  1006
  CURV%NY              =  1006
  CURV%XCOORD%SF        =  1.0
  CURV%XCOORD%OFF       =  0.0
  CURV%XCOORD%FILENAME  =  '../input/aoc_9km.lon'
  CURV%YCOORD%SF        =  1.0
  CURV%YCOORD%OFF       =  0.0
  CURV%YCOORD%FILENAME  =  '../input/aoc_9km.lat'
/

! -------------------------------------------------------------------- !
! Define the depth to preprocess via DEPTH_NML namelist
! -------------------------------------------------------------------- !
&DEPTH_NML
  DEPTH%SF        =  0.001
  DEPTH%FILENAME  =  '../input/aoc_9km.bot'
/

! -------------------------------------------------------------------- !
! Define the point status map via MASK_NML namelist
! -------------------------------------------------------------------- !
&MASK_NML
  MASK%FILENAME  =  '../input/aoc_9km.mask'
/

! -------------------------------------------------------------------- !
! Define the obstruction map via OBST_NML namelist
! -------------------------------------------------------------------- !
&OBST_NML
  OBST%SF        =  0.01
  OBST%FILENAME  =  '../input/aoc_9km.obs'
/

! -------------------------------------------------------------------- !
! WAVEWATCH III - end of namelist                                      !
! -------------------------------------------------------------------- !
