$ WAVEWATCH III Initial conditions input file
$ -------------------------------------------
$ ITYPE: 1= GAUSSIAN
 1 
$  fp   sip    thm  ncos  xm    six   ym  siy hmax
   0.77  0.001  180. 1000   7.0   100   7.    1000   0.055
$ 
$   Other possibility: non-zero values only near boundary 
$   0.125  0.0001  80. 200  -83.012 0.005  9.99 2.8 4.
EOF

