$ -------------------------------------------------------------------- $
$ WAVEWATCH III Initial conditions input file                          $
$--------------------------------------------------------------------- $
$ type of initial field ITYPE .
$
    2
$
$ ITYPE = 2 ---------------------------------------------------------- $
$ JONSWAP spectrum with Hasselmann et al. (1980) direct. distribution.
$ - alfa, peak freq. (Hz), mean direction (degr., oceanographical
$   convention), gamma, sigA, sigB, Xm and spread (degr. or m) Ym and
$   spread (degr. or m)  (Example for lon-lat grid in degr.).
$   alfa, sigA, sigB give default values if less than or equal to 0.
$
$ fp: 0.25 Hz, Hs: ~0.7 m, α: 0.0081
$
    0.0  0.25  270.  2.0 0. 0. 0. 1. 0. 1.
$ -------------------------------------------------------------------- $
$ End of input file                                                    $
$ -------------------------------------------------------------------- $
