$ WAVEWATCH III Point output post-processing
$ ------------------------------------------
  19680606 000000  900.  999
$
  1
 -1
$
  1
$
    3   1.  0.  33  F
