'WAVEWATCH III SPECTRA'     13    24     1 '                       Unknown'
 6.670E-02 7.337E-02 8.071E-02 8.878E-02 9.766E-02 1.074E-01 1.182E-01 1.300E-01
 1.430E-01 1.573E-01 1.730E-01 1.903E-01 2.093E-01
  1.571E+00  1.309E+00  1.047E+00  7.854E-01  5.236E-01  2.618E-01  0.000E+00
  6.021E+00  5.760E+00  5.498E+00  5.236E+00  4.974E+00  4.712E+00  4.451E+00
  4.189E+00  3.927E+00  3.665E+00  3.403E+00  3.142E+00  2.880E+00  2.618E+00
  2.356E+00  2.094E+00  1.833E+00
20010101 000000
'spec2     '  56.70 -17.10       0.0   0.00   0.0   0.00 270.0
  8.736E-02  3.718E-01  8.852E-01  1.840E+00  4.062E+00  2.712E+00  1.293E+00
  8.843E-01  6.259E-01  4.257E-01  2.813E-01  1.823E-01  1.165E-01  2.876E-02
  1.224E-01  2.914E-01  6.057E-01  1.337E+00  8.927E-01  4.256E-01  2.911E-01
  2.061E-01  1.402E-01  9.261E-02  6.000E-02  3.835E-02  9.871E-04  4.201E-03
  1.000E-02  2.079E-02  4.590E-02  3.064E-02  1.461E-02  9.992E-03  7.072E-03
  4.810E-03  3.179E-03  2.059E-03  1.316E-03  3.126E-06  1.330E-05  3.167E-05
  6.583E-05  1.453E-04  9.702E-05  4.625E-05  3.164E-05  2.240E-05  1.523E-05
  1.007E-05  6.521E-06  4.168E-06  7.299E-10  3.106E-09  7.396E-09  1.537E-08
  3.394E-08  2.266E-08  1.080E-08  7.388E-09  5.230E-09  3.557E-09  2.350E-09
  1.523E-09  9.734E-10  8.732E-15  3.716E-14  8.848E-14  1.839E-13  4.060E-13
  2.710E-13  1.292E-13  8.839E-14  6.256E-14  4.255E-14  2.812E-14  1.822E-14
  1.164E-14  3.005E-21  1.279E-20  3.045E-20  6.329E-20  1.397E-19  9.328E-20
  4.447E-20  3.042E-20  2.153E-20  1.465E-20  9.677E-21  6.270E-21  4.008E-21
  0.000E+00  0.000E+00  0.000E+00  0.000E+00  0.000E+00  0.000E+00  0.000E+00
  0.000E+00  0.000E+00  0.000E+00  0.000E+00  0.000E+00  0.000E+00  0.000E+00
  0.000E+00  0.000E+00  0.000E+00  0.000E+00  0.000E+00  0.000E+00  0.000E+00
  0.000E+00  0.000E+00  0.000E+00  0.000E+00  0.000E+00  0.000E+00  0.000E+00
  0.000E+00  0.000E+00  0.000E+00  0.000E+00  0.000E+00  0.000E+00  0.000E+00
  0.000E+00  0.000E+00  0.000E+00  0.000E+00  0.000E+00  0.000E+00  0.000E+00
  0.000E+00  0.000E+00  0.000E+00  0.000E+00  0.000E+00  0.000E+00  0.000E+00
  0.000E+00  0.000E+00  0.000E+00  0.000E+00  0.000E+00  0.000E+00  0.000E+00
  0.000E+00  0.000E+00  0.000E+00  0.000E+00  0.000E+00  0.000E+00  0.000E+00
  0.000E+00  0.000E+00  0.000E+00  0.000E+00  0.000E+00  0.000E+00  0.000E+00
  0.000E+00  0.000E+00  0.000E+00  0.000E+00  0.000E+00  0.000E+00  0.000E+00
  0.000E+00  0.000E+00  0.000E+00  0.000E+00  0.000E+00  0.000E+00  0.000E+00
  0.000E+00  0.000E+00  0.000E+00  0.000E+00  0.000E+00  0.000E+00  0.000E+00
  0.000E+00  0.000E+00  0.000E+00  0.000E+00  0.000E+00  0.000E+00  0.000E+00
  0.000E+00  0.000E+00  0.000E+00  0.000E+00  0.000E+00  0.000E+00  0.000E+00
  0.000E+00  0.000E+00  0.000E+00  0.000E+00  0.000E+00  0.000E+00  0.000E+00
  0.000E+00  0.000E+00  0.000E+00  0.000E+00  0.000E+00  0.000E+00  0.000E+00
  0.000E+00  0.000E+00  0.000E+00  0.000E+00  0.000E+00  0.000E+00  0.000E+00
  0.000E+00  0.000E+00  0.000E+00  0.000E+00  0.000E+00  0.000E+00  0.000E+00
  0.000E+00  0.000E+00  0.000E+00  0.000E+00  0.000E+00  0.000E+00  0.000E+00
  0.000E+00  0.000E+00  0.000E+00  3.005E-21  1.279E-20  3.045E-20  6.329E-20
  1.397E-19  9.328E-20  4.447E-20  3.042E-20  2.153E-20  1.465E-20  9.677E-21
  6.270E-21  4.008E-21  8.732E-15  3.716E-14  8.848E-14  1.839E-13  4.060E-13
  2.710E-13  1.292E-13  8.839E-14  6.256E-14  4.255E-14  2.812E-14  1.822E-14
  1.164E-14  7.299E-10  3.106E-09  7.396E-09  1.537E-08  3.394E-08  2.266E-08
  1.080E-08  7.388E-09  5.230E-09  3.557E-09  2.350E-09  1.523E-09  9.734E-10
  3.126E-06  1.330E-05  3.167E-05  6.583E-05  1.453E-04  9.702E-05  4.625E-05
  3.164E-05  2.240E-05  1.523E-05  1.007E-05  6.521E-06  4.168E-06  9.871E-04
  4.201E-03  1.000E-02  2.079E-02  4.590E-02  3.064E-02  1.461E-02  9.992E-03
  7.072E-03  4.810E-03  3.179E-03  2.059E-03  1.316E-03  2.876E-02  1.224E-01
  2.914E-01  6.057E-01  1.337E+00  8.927E-01  4.256E-01  2.911E-01  2.061E-01
  1.402E-01  9.261E-02  6.000E-02  3.835E-02
20010102 000000
'spec2     '  56.70 -17.10       0.0   0.00   0.0   0.00 270.0
  8.736E-02  3.718E-01  8.852E-01  1.840E+00  4.062E+00  2.712E+00  1.293E+00
  8.843E-01  6.259E-01  4.257E-01  2.813E-01  1.823E-01  1.165E-01  2.876E-02
  1.224E-01  2.914E-01  6.057E-01  1.337E+00  8.927E-01  4.256E-01  2.911E-01
  2.061E-01  1.402E-01  9.261E-02  6.000E-02  3.835E-02  9.871E-04  4.201E-03
  1.000E-02  2.079E-02  4.590E-02  3.064E-02  1.461E-02  9.992E-03  7.072E-03
  4.810E-03  3.179E-03  2.059E-03  1.316E-03  3.126E-06  1.330E-05  3.167E-05
  6.583E-05  1.453E-04  9.702E-05  4.625E-05  3.164E-05  2.240E-05  1.523E-05
  1.007E-05  6.521E-06  4.168E-06  7.299E-10  3.106E-09  7.396E-09  1.537E-08
  3.394E-08  2.266E-08  1.080E-08  7.388E-09  5.230E-09  3.557E-09  2.350E-09
  1.523E-09  9.734E-10  8.732E-15  3.716E-14  8.848E-14  1.839E-13  4.060E-13
  2.710E-13  1.292E-13  8.839E-14  6.256E-14  4.255E-14  2.812E-14  1.822E-14
  1.164E-14  3.005E-21  1.279E-20  3.045E-20  6.329E-20  1.397E-19  9.328E-20
  4.447E-20  3.042E-20  2.153E-20  1.465E-20  9.677E-21  6.270E-21  4.008E-21
  0.000E+00  0.000E+00  0.000E+00  0.000E+00  0.000E+00  0.000E+00  0.000E+00
  0.000E+00  0.000E+00  0.000E+00  0.000E+00  0.000E+00  0.000E+00  0.000E+00
  0.000E+00  0.000E+00  0.000E+00  0.000E+00  0.000E+00  0.000E+00  0.000E+00
  0.000E+00  0.000E+00  0.000E+00  0.000E+00  0.000E+00  0.000E+00  0.000E+00
  0.000E+00  0.000E+00  0.000E+00  0.000E+00  0.000E+00  0.000E+00  0.000E+00
  0.000E+00  0.000E+00  0.000E+00  0.000E+00  0.000E+00  0.000E+00  0.000E+00
  0.000E+00  0.000E+00  0.000E+00  0.000E+00  0.000E+00  0.000E+00  0.000E+00
  0.000E+00  0.000E+00  0.000E+00  0.000E+00  0.000E+00  0.000E+00  0.000E+00
  0.000E+00  0.000E+00  0.000E+00  0.000E+00  0.000E+00  0.000E+00  0.000E+00
  0.000E+00  0.000E+00  0.000E+00  0.000E+00  0.000E+00  0.000E+00  0.000E+00
  0.000E+00  0.000E+00  0.000E+00  0.000E+00  0.000E+00  0.000E+00  0.000E+00
  0.000E+00  0.000E+00  0.000E+00  0.000E+00  0.000E+00  0.000E+00  0.000E+00
  0.000E+00  0.000E+00  0.000E+00  0.000E+00  0.000E+00  0.000E+00  0.000E+00
  0.000E+00  0.000E+00  0.000E+00  0.000E+00  0.000E+00  0.000E+00  0.000E+00
  0.000E+00  0.000E+00  0.000E+00  0.000E+00  0.000E+00  0.000E+00  0.000E+00
  0.000E+00  0.000E+00  0.000E+00  0.000E+00  0.000E+00  0.000E+00  0.000E+00
  0.000E+00  0.000E+00  0.000E+00  0.000E+00  0.000E+00  0.000E+00  0.000E+00
  0.000E+00  0.000E+00  0.000E+00  0.000E+00  0.000E+00  0.000E+00  0.000E+00
  0.000E+00  0.000E+00  0.000E+00  0.000E+00  0.000E+00  0.000E+00  0.000E+00
  0.000E+00  0.000E+00  0.000E+00  0.000E+00  0.000E+00  0.000E+00  0.000E+00
  0.000E+00  0.000E+00  0.000E+00  3.005E-21  1.279E-20  3.045E-20  6.329E-20
  1.397E-19  9.328E-20  4.447E-20  3.042E-20  2.153E-20  1.465E-20  9.677E-21
  6.270E-21  4.008E-21  8.732E-15  3.716E-14  8.848E-14  1.839E-13  4.060E-13
  2.710E-13  1.292E-13  8.839E-14  6.256E-14  4.255E-14  2.812E-14  1.822E-14
  1.164E-14  7.299E-10  3.106E-09  7.396E-09  1.537E-08  3.394E-08  2.266E-08
  1.080E-08  7.388E-09  5.230E-09  3.557E-09  2.350E-09  1.523E-09  9.734E-10
  3.126E-06  1.330E-05  3.167E-05  6.583E-05  1.453E-04  9.702E-05  4.625E-05
  3.164E-05  2.240E-05  1.523E-05  1.007E-05  6.521E-06  4.168E-06  9.871E-04
  4.201E-03  1.000E-02  2.079E-02  4.590E-02  3.064E-02  1.461E-02  9.992E-03
  7.072E-03  4.810E-03  3.179E-03  2.059E-03  1.316E-03  2.876E-02  1.224E-01
  2.914E-01  6.057E-01  1.337E+00  8.927E-01  4.256E-01  2.911E-01  2.061E-01
  1.402E-01  9.261E-02  6.000E-02  3.835E-02
