$ WAVEWATCH III Point output post-processing
$ ------------------------------------------
  19680606 000000   900.  193
$
  1
 -1
$
  2
  2  50
$
$ End of input file
