$ WAVEWATCH III multi-scale input file
$ ------------------------------------
  2 0 F 1 F F
$
  'outer' 'no' 'no' 'no' 'no' 'no' 'no' 'no'   1  1  0.00 1.00  F
  'fine' 'no' 'no' 'no' 'no' 'no' 'no' 'no'   2  1  0.00 1.00  F
$ 'outer' 'no' 'no' 'no' 'no' 'no' 'no' 'no'   1  1  0.50 1.00  F
$ 'fine' 'no' 'no' 'no' 'no' 'no' 'no' 'no'   2  1  0.00 0.50  F
$ 'outer' 'no' 'no' 'no' 'no' 'no' 'no' 'no'   1  1  0.25 1.00  F
$ 'fine' 'no' 'no' 'no' 'no' 'no' 'no' 'no'   2  1  0.00 0.75  F
$
   19680606 000000   19680608 000000
$
   T  T
$
$  time for gridded output :
   19680606 000000   3600  19680608 000000
$-------------------------------------------------------------------------------------------------------------------
$D C W D W  I H L T T  T C F D S  D P P P P  P P W P D  F C C U C  F T T W W  W W A U B  F T S T J  F T U M M  P U U
$P U N T L  C S   0    M G P I P  P H T L T  S W S N T  C F F S H  A A W C C  C C B B E  B B X W    O U S S S  2 S S
$T R D   V  E     2    1 E   R R    S P P H  I S F R D    X D T A  W W A C F  H M R R D  B B Y O    C S S S C  S 1 2
$-------------------------------------------------------------------------------------------------------------------
 T T T T T  T T T T T  T T T T T  T T T T T  T T T T T  T T T T T  T F F F F  F F F F F  F F F F F  F F F F F  F F F
$  time for point output :
   19680606 000000   3600  19680608 000000
     750.E3 750.E3  'point_A   '
       0.E3   0.E3  'STOPSTRING'
$
$  time for track output :
   19680606 000000      0  19680608 000000
$  time for restart file output :
   19680606 000000      0  19680608 000000
$  time for boundary output :
   19680606 000000      0  19680608 000000
$  time for separated wave field output :
   19680606 000000      0  19680608 000000
$
  'the_end'  0
$
  'STP'
$
$ End of input file
