$ WAVEWATCH III Grid output post-processing
$ -----------------------------------------
  19680608 000000 3600. 1
$
  T F F F F  T F F F F  F F F F F  F F F F F  F F F F F F  F F F F F  F
$
  1 0
$
  1 42 1 2 2 1 F F F
