$ WAVEWATCH III Initial conditions input file
$ -------------------------------------------
  1
$  fp   sip    thm  ncos    xm    six    ym  siy hmax
   0.1  0.0001  270. 200  -15.E3 -15.E3  0. 15.E3 1.0
