$ WAVEWATCH III Point output post-processing (GrADS)
$ --------------------------------------------------
  19680606 000000 10800. 999
$
  1
 -1
$
  T T T T T T
