! -------------------------------------------------------------------- !
! WAVEWATCH III ww3_shel.nml - single-grid model                       !
! -------------------------------------------------------------------- !


! -------------------------------------------------------------------- !
! Define top-level model parameters via DOMAIN_NML namelist
! -------------------------------------------------------------------- !
&DOMAIN_NML
  DOMAIN%START   = '20000101 000000'
  DOMAIN%STOP    = '20000106 000000'
/

! -------------------------------------------------------------------- !
! Define each forcing via the INPUT_NML namelist
! -------------------------------------------------------------------- !
&INPUT_NML
  INPUT%FORCING%WINDS         = 'H'
/

! -------------------------------------------------------------------- !
! Define the output types point parameters via OUTPUT_TYPE_NML namelist
! -------------------------------------------------------------------- !
&OUTPUT_TYPE_NML
  TYPE%FIELD%LIST          = 'DPT QP QKK WND ICE HS MSS MSD FAW WCC WCF WCH WCM FOC TAW CHA UST'
  TYPE%POINT%FILE          = '../input_10ms/points.list'
/

! -------------------------------------------------------------------- !
! Define output dates via OUTPUT_DATE_NML namelist
! -------------------------------------------------------------------- !
&OUTPUT_DATE_NML
  DATE%FIELD          = '19680606 000000' '1800' '20230618 000000'
  DATE%POINT          = '19680606 000000' '1800' '20230618 000000'
/

! -------------------------------------------------------------------- !
! Define homogeneous input via HOMOG_COUNT_NML and HOMOG_INPUT_NML namelist
! -------------------------------------------------------------------- !
&HOMOG_COUNT_NML
  HOMOG_COUNT%N_CUR                =  0
  HOMOG_COUNT%N_WND                =  1
/

&HOMOG_INPUT_NML
  HOMOG_INPUT(1)%NAME        = 'WND'
  HOMOG_INPUT(1)%VALUE1      = 10.
  HOMOG_INPUT(1)%VALUE2      = 270.
  HOMOG_INPUT(1)%VALUE3      = 0.
/

! -------------------------------------------------------------------- !
! WAVEWATCH III - end of namelist                                      !
! -------------------------------------------------------------------- !
