$ WAVEWATCH III shell input file
$ ------------------------------
   F T
   F T
   T T
   F
   F
   F
   F
$
   19680606 000000
   19680607 120000
$
   1
$
   19680606 000000   3600  19680618 000000
$
N
$
DPT WND MSS MSD ICE HS MSS FAW WCC WCF WCH WCM FOC TAW CHA FWS WBT
$
   19680606 000000     60  19680618 000000
     0.0   0.0  'The_point'
     0.0   0.0  'STOPSTRING'
   19680607 000000      0  19680608 000000
   19680607 000000      0  19680608 000000
   19680606 000000      0  19680608 000000
   19680606 000000      0  19680608 000000
$
   'WND' 19680606 000000   12.   270.  0.
   'WND' 19680606 060000   12.   180.  0.
   'WND' 19680606 120000   12.   135.  0.
   'WND' 19680606 180000   12.   90.  0.
   'WND' 19680607 000000   12.   45.  0.
   'CUR' 19680606 000000    2.    90.  0.
   'STP'
