$ WAVEWATCH III multi-grid input file
$ ------------------------------------
  2 0 T 1 F T
$
$ 'wind_ncep'  F F T F F F F
$ 'ice_cep2b'  F F F T F F F
 'points'
 'rect1'   'no' 'no' 'no' 'no'   'no' 'no' 'no' 'no' 'no'  1 1  0.00 1.00  T
 'refug'    'no' 'no' 'no' 'no'   'no' 'no' 'no' 'no' 'no'  2 1  0.00 1.00  T
$
   20030101 000000  20030102 120000
$
   F F
$
   20030101 000000  3600   20031231 230000
$ 
  N 
  DPT CUR WND WLV ICE HS LM T02 T0M1 T01 FP DIR SPR EF TH1M STH1M 
$
   20030101 000000  10800   20031231 230000 
$
 -6.00 0.00 'POINT09'
-4.59999990         -0.10000000 'POINT25' 
-4.59953976          0.1500000 'POINT38'
-4.50000000  0.20000000 'POINT22'
 -4.6461 0.2533 'POINT33'
 0.00    0.00  'STOPSTRING'  999.   XXX  NCEP     99
   20070101 000000  0  20070301 000000
   20080101 000000  43200  20111103  000000
   20070101 000000  0   20070301 000000
   20070101 000000     0    20070301 000000
$    0 9999 1 0 9999 1 T
$
  'the_end'  0
$
  'STP'
$
$ End of input file
