! -------------------------------------------------------------------- !
! WAVEWATCH III ww3_ounf.nml - Grid output post-processing             !
! -------------------------------------------------------------------- !

! -------------------------------------------------------------------- !
! Define the output fields to postprocess via FIELD_NML namelist
! -------------------------------------------------------------------- !
&FIELD_NML
  FIELD%TIMESTART        =  '20030101 000000'
  FIELD%TIMESTRIDE       =  '3600.'
  FIELD%TIMECOUNT        =  '100'
  FIELD%LIST             =  'DPT CUR WND WLV ICE HS LM T02 T0M1 T01 FP DIR SPR EF TH1M STH1M'
  FIELD%PARTITION        =  '0 1 2'
  FIELD%SAMEFILE         =  F
  FIELD%TYPE             =  4
/

! -------------------------------------------------------------------- !
! Define the content of the output file via FILE_NML namelist
! -------------------------------------------------------------------- !
&FILE_NML
  FILE%IXN           = 1000
  FILE%IYN           = 1000
/

! -------------------------------------------------------------------- !
! WAVEWATCH III - end of namelist                                      !
! -------------------------------------------------------------------- !
