! -------------------------------------------------------------------- !
! WAVEWATCH III - ww3_grid.nml - Grid pre-processing                   !
! -------------------------------------------------------------------- !

! -------------------------------------------------------------------- !
! Define the spectrum parameterization via SPECTRUM_NML namelist
! -------------------------------------------------------------------- !
&SPECTRUM_NML
  SPECTRUM%XFR       =  1.1
  SPECTRUM%FREQ1     =  0.0373
  SPECTRUM%NK        =  32
  SPECTRUM%NTH       =  24
/

! -------------------------------------------------------------------- !
! Define the run parameterization via RUN_NML namelist
! -------------------------------------------------------------------- !
&RUN_NML
  RUN%FLCX         =  T
  RUN%FLCY         =  T
  RUN%FLCTH        =  T
  RUN%FLCK         =  T
  RUN%FLSOU        =  T
/

! -------------------------------------------------------------------- !
! Define the timesteps parameterization via TIMESTEPS_NML namelist
! -------------------------------------------------------------------- !
&TIMESTEPS_NML
  TIMESTEPS%DTMAX        =  1200.
  TIMESTEPS%DTXY         =  200.
  TIMESTEPS%DTKTH        =  200.
  TIMESTEPS%DTMIN        =  10.
/

! -------------------------------------------------------------------- !
! Define the grid to preprocess via GRID_NML namelist
! -------------------------------------------------------------------- !
&GRID_NML
  GRID%NAME         =  'SMALL PIECE OF DEEP OCEAN'
  GRID%NML          =  '../input/namelists_zcmpl.nml'
  GRID%TYPE         =  'RECT'
  GRID%COORD        =  'SPHE'
  GRID%CLOS         =  'NONE'
  GRID%ZLIM         =  -5.
  GRID%DMIN         =  5.75
/

! -------------------------------------------------------------------- !
! Define the rectilinear grid type via RECT_NML namelist
! -------------------------------------------------------------------- !
&RECT_NML
  RECT%NX           =  81
  RECT%NY           =  37
  RECT%SX           =  0.25
  RECT%SY           =  0.25
  RECT%SF           =  2
  RECT%X0           =  -8.
  RECT%Y0           =  -2.0
  RECT%SF0          =  1
/

! -------------------------------------------------------------------- !
! Define the depth to preprocess via DEPTH_NML namelist
! -------------------------------------------------------------------- !
&DEPTH_NML
  DEPTH%SF        =  -2500.
  DEPTH%FILENAME  =  '../input/zcmpl.depth'
  DEPTH%IDLA      =  2
/

! -------------------------------------------------------------------- !
! Define the input boundary points via INBND_COUNT_NML and
!                                      INBND_POINT_NML namelist
! -------------------------------------------------------------------- !
&INBND_COUNT_NML
  INBND_COUNT%N_POINT    =  2
/

&INBND_POINT_NML
  INBND_POINT(1)         =  2 2 F
  INBND_POINT(2)         =  2 8 T
/

! -------------------------------------------------------------------- !
! Define the output boundary points via OUTBND_COUNT_NML and
!                                       OUTBND_LINE_NML namelist
! -------------------------------------------------------------------- !
&OUTBND_COUNT_NML
  OUTBND_COUNT%N_LINE   =  1
/

&OUTBND_LINE_NML
  OUTBND_LINE(1)           =  -6.0 -1.0 0. 0.25 9
/

! -------------------------------------------------------------------- !
! WAVEWATCH III - end of namelist                                      !
! -------------------------------------------------------------------- !
