$ WAVEWATCH III multi-grid input file
$ ------------------------------------
  2 0 T 0 F T
$
$ 'wind_ncep'  F F T F F F F
$ 'ice_cep2b'  F F F T F F F
 'points'
 'rect1'   'no' 'no' 'no' 'no'   'no' 'no' 'no'  1 1  0.00 1.00  T
 'refug'    'no' 'no' 'no' 'no'   'no' 'no' 'no'  2 1  0.00 1.00  T
$
   20030101 000000  20030102 120000
$
   F F
$
   20030101 000000  3600   20031231 230000
$ (1) Forcing Fields
  T
$ DPT CUR WND DT  WLV ICE IBG D50
  T   T   T   F   T   T   F   F
$ (2) Standard mean wave Parameters
  T
$ HS  LM  TZ  TE  TM  FP  DIR SPR DP
  T   T   T   T   T   T   T   T   T
$ (3) Frequency-dependent parameters
  T
$ EF TH1M STH1M TH1M STH1M WN
  T  T  T  F  F  F
$ (4) Spectral Partition Parameters
  T
$ PHS PTP PLP PTH PSP PWS WSF PNR
  T   T   F   T   T   T   F   T
$ (5) Atmosphere-waves layer
  T
$ UST CHN CGE FAW TAW NWS WCC WCF WCH WCM
  T   T   T   T   T   T   F   F   F   F
$ (6) Wave-Ocean layer
  T
$ SXY TWO BHD FOC TUS USS P2S U3D P2L
  F   T   F   T   T   T   T   F   F   F
$ (7) Wave-bottom layer
  T
$ ABR UBR BED FBB TBB
  T   T   F   F   F
$ (8) Spectrum parameters
  T
$ MSS MSC
  T   T
$ (9) Numerical diagnostics
  F
$ (10) User defined (NOEXTR flags needed)
  F
$
   20030101 000000  10800   20031231 230000 
$
 -6.00 0.00 'POINT09'
-4.59999990         -0.10000000 'POINT25' 
-4.59953976          0.1500000 'POINT38'
-4.50000000  0.20000000 'POINT22'
 -4.6461 0.2533 'POINT33'
 0.00    0.00  'STOPSTRING'  999.   XXX  NCEP     99
   20070101 000000  0  20070301 000000
   20080101 000000  43200  20111103  000000
   20070101 000000  0   20070301 000000
   20070101 000000     0    20070301 000000
$    0 9999 1 0 9999 1 T
$
  'the_end'  0
$
  'STP'
$
$ End of input file
