! -------------------------------------------------------------------- !
! WAVEWATCH III ww3_multi.nml - multi-grid model                       !
! -------------------------------------------------------------------- !


! -------------------------------------------------------------------- !
! Define top-level model parameters via DOMAIN_NML namelist
! -------------------------------------------------------------------- !
&DOMAIN_NML
  DOMAIN%NRGRD	= 2
  DOMAIN%UNIPTS = T
  DOMAIN%PSHARE = T
  DOMAIN%START  = '20030101 000000'
  DOMAIN%STOP   = '20030102 120000'
/

! -------------------------------------------------------------------- !
! Define each input grid via the INPUT_GRID_NML namelist
! -------------------------------------------------------------------- !
&INPUT_GRID_NML
/

! -------------------------------------------------------------------- !
! Define each model grid via the MODEL_GRID_NML namelist
! -------------------------------------------------------------------- !
&MODEL_GRID_NML
  MODEL(1)%NAME                  = 'rect1'
  MODEL(1)%RESOURCE%BOUND_FLAG   = T
  MODEL(2)%NAME                  = 'refug'
  MODEL(2)%RESOURCE%BOUND_FLAG   = T
/

! -------------------------------------------------------------------- !
! Define the output types point parameters via OUTPUT_TYPE_NML namelist
! -------------------------------------------------------------------- !
&OUTPUT_TYPE_NML
  ALLTYPE%FIELD%LIST       = 'DPT CUR WND WLV ICE HS LM T02 T0M1 T01 FP DIR SPR EF TH1M STH1M'
  ALLTYPE%POINT%NAME       = 'points'
  ALLTYPE%POINT%FILE       = '../input/points.list'
/

! -------------------------------------------------------------------- !
! Define output dates via OUTPUT_DATE_NML namelist
! -------------------------------------------------------------------- !
&OUTPUT_DATE_NML
  ALLDATE%FIELD          = '20030101 000000' '3600' '20031231 230000'
  ALLDATE%POINT          = '20030101 000000' '10800' '20031231 230000'
  ALLDATE%RESTART        = '20080101 000000' '43200' '20111103 000000'
/

! -------------------------------------------------------------------- !
! Define homogeneous input via HOMOG_COUNT_NML and HOMOG_INPUT_NML namelist
! -------------------------------------------------------------------- !
&HOMOG_COUNT_NML
/

&HOMOG_INPUT_NML
/

! -------------------------------------------------------------------- !
! WAVEWATCH III - end of namelist                                      !
! -------------------------------------------------------------------- !
