$ -------------------------------------------------------------------- $
$ WAVEWATCH III Grid output post-processing                            $
$--------------------------------------------------------------------- $
$ Time, time increment and number of outputs
$
$ 10800=Every 3 hours. Use a large number to go all the way to end.
$  20080522 000000 10800 999
$ 3600=Every 1 hour. Use a large number to go all the way to end.
  20030101 000000 3600. 100
$ Just once (for depth)
$  20080522 000000 10800 1
$
$ Request flags identifying fields as in ww3_shel input and section 2.4 of the manual.
  N 
  DPT CUR WND WLV ICE HS LM T02 T0M1 T01 FP DIR SPR EF TH1M STH1M 
$
$ -------------------------------------------------------------------- $
$ version of netCDF [3,4] and integer / float [ 2, 3, 4]
$ Output type 0 1 2 [0,1,2,3,4,5]   (swell partition)
$ variables T [T] or not [F] in the same file
$
  3 4
  0 1 2
  F
$
ww3.
6
  1 1000 1 1000 1
$ 1 233 1 158 1 1 
$
$ For each field and time a new file is generated with the file name
$ ww3.yymmddhh.xxx, where yymmddhh is a conventional time idicator,
$ and xxx is a field identifier. The first record of the file contains
$ a file ID (C*13), the time in yyyymmdd hhmmss format, the lowest,
$ highest and number of longitudes (2R,I), id.  latitudes, the file
$ extension name (C*$), a scale factor (R), a unit identifier (C*10),
$ IDLA, IDFM, a format (C*11) and a number identifying undefined or
$ missing values (land, ice, etc.).  The field follows as defined by
$ IDFM and IDLA, defined as in the grid proprocessor. IDLA=5 is added
$ and gives a set of records containing the longitude, latitude and
$ parameter value. Note that the actual data is written as an integers.
$
$ -------------------------------------------------------------------- $
$ End of input file                                                    $
$ -------------------------------------------------------------------- $
