! -------------------------------------------------------------------- !
! WAVEWATCH III - ww3_grid.nml - Grid pre-processing                   !
! -------------------------------------------------------------------- !

! -------------------------------------------------------------------- !
! Define the spectrum parameterization via SPECTRUM_NML namelist
! -------------------------------------------------------------------- !
&SPECTRUM_NML
  SPECTRUM%XFR       =  1.1
  SPECTRUM%FREQ1     =  0.040
  SPECTRUM%NK        =  9
  SPECTRUM%NTH       =  24
/

! -------------------------------------------------------------------- !
! Define the run parameterization via RUN_NML namelist
! -------------------------------------------------------------------- !
&RUN_NML
  RUN%FLCX         =  T
  RUN%FLCY         =  T
  RUN%FLCTH        =  T
/

! -------------------------------------------------------------------- !
! Define the timesteps parameterization via TIMESTEPS_NML namelist
! -------------------------------------------------------------------- !
&TIMESTEPS_NML
  TIMESTEPS%DTMAX        =  2200.
  TIMESTEPS%DTXY         =  2200.
  TIMESTEPS%DTKTH        =  2200.
  TIMESTEPS%DTMIN        =  2200.
/

! -------------------------------------------------------------------- !
! Define the grid to preprocess via GRID_NML namelist
! -------------------------------------------------------------------- !
&GRID_NML
  GRID%NAME         =  '2-D PROPAGATION AROUND GLOBE'
  GRID%NML          =  '../input/namelists_nocmpr.nml'
  GRID%TYPE         =  'RECT'
  GRID%COORD        =  'SPHE'
  GRID%CLOS         =  'NONE'
  GRID%ZLIM         =  -5.
  GRID%DMIN         =  5.75
/

! -------------------------------------------------------------------- !
! Define the rectilinear grid type via RECT_NML namelist
! -------------------------------------------------------------------- !
&RECT_NML
  RECT%NX           =  193
  RECT%NY           =  93
  RECT%SX           =  1.
  RECT%SY           =  1.
  RECT%X0           =  -6.
  RECT%Y0           =  -46.
/

! -------------------------------------------------------------------- !
! Define the depth to preprocess via DEPTH_NML namelist
! -------------------------------------------------------------------- !
&DEPTH_NML
  DEPTH%SF        =  -2500.
  DEPTH%FILENAME  =  '../input/nocmpr.depth'
  DEPTH%IDLA      =  2
/

! -------------------------------------------------------------------- !
! Define the output boundary points via OUTBND_COUNT_NML and
!                                       OUTBND_LINE_NML namelist
! -------------------------------------------------------------------- !
&OUTBND_COUNT_NML
  OUTBND_COUNT%N_LINE   =  2
/

&OUTBND_LINE_NML
  OUTBND_LINE(1)           =  0. -40. 0.5 0.866 100
  OUTBND_LINE(2)           =  0. 40. 0.5 -0.866 -100
/

! -------------------------------------------------------------------- !
! WAVEWATCH III - end of namelist                                      !
! -------------------------------------------------------------------- !
