$ WAVEWATCH III Grid output post-processing
$ -----------------------------------------
  19680606 000000 3600. 12
$
  N
  HS T01 DIR SPR USS USSH
$
  1 0
$
  1 193 1 1 93 1 T F F
