$ WAVEWATCH III Initial conditions input file
$ -------------------------------------------
  1
$  fp       sip    thm  ncos xm  six   ym  siy hmax
   0.06     0.01   310. 8    0.0 -1.0  0.0 1.0 2.5
