$ WAVEWATCH III Point output post-processing
$ ------------------------------------------
  19680606 000000 43200. 25
$
  2
 -1
$
  2
$
  2  52
