$ WAVEWATCH III Point output post-processing
$ ------------------------------------------
  19680606 000000    900. 49
$
  -1
$
   2
   2  51
