! -------------------------------------------------------------------- !
! WAVEWATCH III ww3_shel.nml - single-grid model                       !
! -------------------------------------------------------------------- !


! -------------------------------------------------------------------- !
! Define top-level model parameters via DOMAIN_NML namelist
! -------------------------------------------------------------------- !
&DOMAIN_NML
  DOMAIN%START   = '20100606 000000'
  DOMAIN%STOP    = '20100606 030000'
/

! -------------------------------------------------------------------- !
! Define each forcing via the INPUT_NML namelist
! -------------------------------------------------------------------- !
&INPUT_NML
  INPUT%FORCING%ICE_PARAM1    = 'H'
  INPUT%FORCING%ICE_PARAM2    = 'H'
  INPUT%FORCING%ICE_PARAM5    = 'T'
  INPUT%FORCING%ICE_CONC      = 'T'
/

! -------------------------------------------------------------------- !
! Define the output types point parameters via OUTPUT_TYPE_NML namelist
! -------------------------------------------------------------------- !
&OUTPUT_TYPE_NML
  TYPE%FIELD%LIST          = 'CFX HS LM IC1 IC5 ICE TWI FIC'
  TYPE%POINT%FILE          = '../input_IC2/points.list'
/

! -------------------------------------------------------------------- !
! Define output dates via OUTPUT_DATE_NML namelist
! -------------------------------------------------------------------- !
&OUTPUT_DATE_NML
  DATE%FIELD          = '20100606 000000' '300' '20100607 000000'
  DATE%POINT          = '20100606 000000' '300' '20100612 000000'
/

! -------------------------------------------------------------------- !
! Define homogeneous input via HOMOG_COUNT_NML and HOMOG_INPUT_NML namelist
! -------------------------------------------------------------------- !
&HOMOG_COUNT_NML
  HOMOG_COUNT%N_IC1                =  1
  HOMOG_COUNT%N_IC2                =  1
/

&HOMOG_INPUT_NML
  HOMOG_INPUT(1)%NAME        = 'IC1'
  HOMOG_INPUT(1)%DATE        = '20100606 000000'
  HOMOG_INPUT(1)%VALUE1      = 2

  HOMOG_INPUT(2)%NAME        = 'IC2'
  HOMOG_INPUT(2)%DATE        = '20100606 000000'
  HOMOG_INPUT(2)%VALUE1      = 0.0001
/

! -------------------------------------------------------------------- !
! WAVEWATCH III - end of namelist                                      !
! -------------------------------------------------------------------- !
