$ WAVEWATCH III Initial conditions input file
$ -------------------------------------------
 1
$
 0.1 0.01 270. 120 10.E3 10.E3 120.E3 10.E3 3  
