$ WAVEWATCH III shell input file
$ ------------------------------
   T T
   T T
   F F
   F F
   T F
   F F
   F F
   F F
   F F
   F F
   F F
   T
   F
   F
   F
$
  20100606 000000
  20100606 030000
$
  1
$
  20100606 000000  300  20100607 000000
$
N
CFX HS LM IC1 IC5 ICE TWI FIC
$
   20100606 000000    300  20100612 000000
  100000 120000  'Point1'
   0.    0.  'STOPSTRING'
   20100606 000000      0  20100608 000000
   20100606 000000      0  20100607 000000
   20100606 000000      0  20100612 000000
   20100606 000000      0  20100612 000000
$
 'IC1' 20100606 000000 2
 'IC2' 20100606 000000 0.0001
$  'IC5' 20100606 000000 200
$  'IC3' 20100606 000000 917
$  'IC4' 20100606 000000 1e6
$$  'WND' 20100606 000000 5. 180. 0.
  'STP'




