
                  *** WAVEWATCH III  Initial conditions ***   
               ===============================================

  Comment character is '$'

  Grid name : 1-D PROPAGATION EQUATOR       


  Initial field ITYPE = 4
 --------------------------------------------------
       User-defined energy spectrum F(f,theta).

       Scale factor             (-) :   0.5125E-05


  Location : TEST 2-D
  Spectrum : Energy (Normalized)   Maximum value : .507E-01 m2s

       ang.|  frequencies (Hz) 
       deg.| 0.055   0.081   0.119   0.176   0.259   0.381   0.561   0.825
       ----+---|-------|-------|-------|-------|-------|-------|-------|-----+
         N |                                                                 |
           |                                                                 |
           |                                   0 0 0                         |
           |                                 0 0 0 0 0 0 0                   |
           |                               0 0 0 0 0 0 0 0 0                 |
           |                               0 0 0 0 0 0 0 0 0 0               |
           |                               0 0 0 0 0 0 0 0 0 0 0             |
           |                             0 0 0 0 0 0 0 0 0 0 0 0 0           |
           |                             0 0 0 0 0 0 0 0 0 0 0 0 0           |
           |                             0 0 0 0 0 0 0 0 0 0 0 0 0 0         |
           |                             0 0 0 0 0 0 0 0 0 0 0 0 0 0         |
           |                             0 0 0 0 0 0 0 0 0 0 0 0 0 0         |
           |                             0 0 0 0 0 0 0 0 0 0 0 0 0 0 0       |
           |                             0 0 0 0 0 0 0 0 0 0 0 0 0 0 0       |
           |                             0 0 0 0 0 0 0 0 0 0 0 0 0 0 0       |
           |                             0 0 0 0 0 0 0 0 0 0 0 0 0 0 0 0     |
           |                             0 0 0 0 0 0 0 0 0 0 0 0 0 0 0 0     |
           |                             0 0 0 0 0 0 0 0 0 0 0 0 0 0 0 0     |
           |                           0 0 0 0 0 0 0 0 0 0 0 0 0 0 0 0 0     |
           |                           0 0 0 0 0 1 0 0 0 0 0 0 0 0 0 0 0 0   |
           |                           0 0 0 0 1 1 1 0 0 0 0 0 0 0 0 0 0 0   |
           |                           0 0 0 0 1 1 1 0 0 0 0 0 0 0 0 0 0 0   |
           |                           0 0 0 0 1 1 1 1 0 0 0 0 0 0 0 0 0 0   |
           |                           0 0 0 1 1 1 1 1 0 0 0 0 0 0 0 0 0 0   |
           |                           0 0 0 1 1 1 1 1 0 0 0 0 0 0 0 0 0 0 0 |
           |                           0 0 0 1 1 1 1 1 0 0 0 0 0 0 0 0 0 0 0 |
           |                           0 0 0 1 1 1 1 1 1 0 0 0 0 0 0 0 0 0 0 |
           |                           0 0 0 1 1 2 1 1 1 0 0 0 0 0 0 0 0 0 0 |
           |                           0 0 0 1 2 2 1 1 1 0 0 0 0 0 0 0 0 0 0 |
           |                           0 0 0 1 2 2 2 1 1 0 0 0 0 0 0 0 0 0 0 |
           |                           0 0 0 1 2 2 2 1 1 0 0 0 0 0 0 0 0 0 0 |
           |                           0 0 0 1 2 2 2 1 1 0 0 0 0 0 0 0 0 0 0 |
           |                           0 0 0 1 2 2 2 2 1 1 0 0 0 0 0 0 0 0 0 |
           |                           0 0 0 1 2 2 2 2 1 1 0 0 0 0 0 0 0 0 0 |
           |                           0 0 0 2 2 3 2 2 1 1 0 0 0 0 0 0 0 0 0 |
           |                           0 0 1 2 3 3 2 2 1 1 0 0 0 0 0 0 0 0 0 |
           |                           0 0 1 2 3 3 3 2 1 1 0 0 0 0 0 0 0 0 0 |
           |                           0 0 1 2 3 3 3 2 1 1 0 0 0 0 0 0 0 0 0 |
           |                           0 0 1 2 3 3 3 2 2 1 0 0 0 0 0 0 0 0 0 |
           |                           0 0 1 2 3 3 3 2 2 1 0 0 0 0 0 0 0 0 0 |
           |                           0 0 1 2 3 4 3 2 2 1 1 0 0 0 0 0 0 0 0 |
           |                           0 0 1 2 3 4 3 3 2 1 1 0 0 0 0 0 0 0 0 |
           |                           0 0 1 2 4 4 4 3 2 1 1 0 0 0 0 0 0 0 0 |
           |                           0 0 1 3 4 4 4 3 2 1 1 0 0 0 0 0 0 0 0 |
           |                           0 0 1 3 4 4 4 3 2 1 1 0 0 0 0 0 0 0 0 |
        NE |                           0 0 1 3 4 4 4 3 2 1 1 0 0 0 0 0 0 0 0 |
           |                           0 0 1 3 4 5 4 3 2 1 1 0 0 0 0 0 0 0 0 |
           |                           0 0 1 3 4 5 4 3 2 1 1 0 0 0 0 0 0 0 0 |
           |                           0 0 1 3 5 5 4 3 2 2 1 0 0 0 0 0 0 0 0 |
           |                           0 0 1 3 5 5 5 4 3 2 1 0 0 0 0 0 0 0 0 |
           |                           0 0 1 3 5 5 5 4 3 2 1 0 0 0 0 0 0 0 0 |
           |                           0 0 1 3 5 6 5 4 3 2 1 0 0 0 0 0 0 0 0 |
           |                           0 0 1 4 5 6 5 4 3 2 1 0 0 0 0 0 0 0 0 |
           |                           0 0 2 4 5 6 5 4 3 2 1 1 0 0 0 0 0 0 0 |
           |                           0 0 2 4 6 6 5 4 3 2 1 1 0 0 0 0 0 0 0 |
           |                           0 0 2 4 6 6 6 4 3 2 1 1 0 0 0 0 0 0 0 |
           |                           0 0 2 4 6 6 6 4 3 2 1 1 0 0 0 0 0 0 0 |
           |                           0 0 2 4 6 7 6 5 3 2 1 1 0 0 0 0 0 0 0 |
           |                           0 0 2 4 6 7 6 5 3 2 1 1 0 0 0 0 0 0 0 |
           |                           0 0 2 4 6 7 6 5 3 2 1 1 0 0 0 0 0 0 0 |
           |                           0 0 2 4 6 7 6 5 3 2 1 1 0 0 0 0 0 0 0 |
           |                           0 0 2 5 7 7 6 5 4 2 1 1 0 0 0 0 0 0 0 |
           |                           0 0 2 5 7 7 7 5 4 2 1 1 0 0 0 0 0 0 0 |
           |                           0 0 2 5 7 7 7 5 4 2 1 1 0 0 0 0 0 0 0 |
           |                           0 0 2 5 7 8 7 5 4 2 1 1 0 0 0 0 0 0 0 |
           |                           0 0 2 5 7 8 7 5 4 3 2 1 0 0 0 0 0 0 0 |
           |                           0 0 2 5 7 8 7 6 4 3 2 1 0 0 0 0 0 0 0 |
           |                           0 0 2 5 7 8 7 6 4 3 2 1 0 0 0 0 0 0 0 |
           |                           0 0 2 5 7 8 7 6 4 3 2 1 0 0 0 0 0 0 0 |
           |                           0 0 2 5 8 8 7 6 4 3 2 1 0 0 0 0 0 0 0 |
           |                           0 0 2 5 8 8 7 6 4 3 2 1 0 0 0 0 0 0 0 |
           |                           0 0 2 5 8 8 8 6 4 3 2 1 0 0 0 0 0 0 0 |
           |                           0 0 2 5 8 9 8 6 4 3 2 1 0 0 0 0 0 0 0 |
           |                           0 0 2 6 8 9 8 6 4 3 2 1 0 0 0 0 0 0 0 |
           |                           0 0 2 6 8 9 8 6 4 3 2 1 0 0 0 0 0 0 0 |
           |                           0 0 2 6 8 9 8 6 4 3 2 1 0 0 0 0 0 0 0 |
           |                           0 0 3 6 8 9 8 6 4 3 2 1 0 0 0 0 0 0 0 |
           |                           0 0 3 6 8 9 8 6 5 3 2 1 0 0 0 0 0 0 0 |
           |                           0 0 3 6 8 9 8 6 5 3 2 1 0 0 0 0 0 0 0 |
           |                           0 0 3 6 8 9 8 6 5 3 2 1 0 0 0 0 0 0 0 |
           |                           0 0 3 6 8 9 8 6 5 3 2 1 0 0 0 0 0 0 0 |
           |                           0 0 3 6 9 9 8 7 5 3 2 1 1 0 0 0 0 0 0 |
           |                           0 0 3 6 9 9 8 7 5 3 2 1 1 0 0 0 0 0 0 |
           |                           0 0 3 6 9 9 8 7 5 3 2 1 1 0 0 0 0 0 0 |
           |                           0 0 3 6 9 9 8 7 5 3 2 1 1 0 0 0 0 0 0 |
           |                           0 0 3 6 9 9 8 7 5 3 2 1 1 0 0 0 0 0 0 |
           |                           0 0 3 6 9 9 8 7 5 3 2 1 1 0 0 0 0 0 0 |
           |                           0 0 3 6 9 9 8 7 5 3 2 1 1 0 0 0 0 0 0 |
           |                           0 0 3 6 9 9 9 7 5 3 2 1 1 0 0 0 0 0 0 |
           |                           0 0 3 6 9 9 9 7 5 3 2 1 1 0 0 0 0 0 0 |
         E |                           0 0 3 6 9 * 9 7 5 3 2 1 1 0 0 0 0 0 0 |
           |                           0 0 3 6 9 9 9 7 5 3 2 1 1 0 0 0 0 0 0 |
           |                           0 0 3 6 9 9 9 7 5 3 2 1 1 0 0 0 0 0 0 |
           |                           0 0 3 6 9 9 8 7 5 3 2 1 1 0 0 0 0 0 0 |
           |                           0 0 3 6 9 9 8 7 5 3 2 1 1 0 0 0 0 0 0 |
           |                           0 0 3 6 9 9 8 7 5 3 2 1 1 0 0 0 0 0 0 |
           |                           0 0 3 6 9 9 8 7 5 3 2 1 1 0 0 0 0 0 0 |
           |                           0 0 3 6 9 9 8 7 5 3 2 1 1 0 0 0 0 0 0 |
           |                           0 0 3 6 9 9 8 7 5 3 2 1 1 0 0 0 0 0 0 |
           |                           0 0 3 6 9 9 8 7 5 3 2 1 1 0 0 0 0 0 0 |
           |                           0 0 3 6 8 9 8 6 5 3 2 1 0 0 0 0 0 0 0 |
           |                           0 0 3 6 8 9 8 6 5 3 2 1 0 0 0 0 0 0 0 |
           |                           0 0 3 6 8 9 8 6 5 3 2 1 0 0 0 0 0 0 0 |
           |                           0 0 3 6 8 9 8 6 5 3 2 1 0 0 0 0 0 0 0 |
           |                           0 0 3 6 8 9 8 6 4 3 2 1 0 0 0 0 0 0 0 |
           |                           0 0 2 6 8 9 8 6 4 3 2 1 0 0 0 0 0 0 0 |
           |                           0 0 2 6 8 9 8 6 4 3 2 1 0 0 0 0 0 0 0 |
           |                           0 0 2 6 8 9 8 6 4 3 2 1 0 0 0 0 0 0 0 |
           |                           0 0 2 5 8 9 8 6 4 3 2 1 0 0 0 0 0 0 0 |
           |                           0 0 2 5 8 8 8 6 4 3 2 1 0 0 0 0 0 0 0 |
           |                           0 0 2 5 8 8 7 6 4 3 2 1 0 0 0 0 0 0 0 |
           |                           0 0 2 5 8 8 7 6 4 3 2 1 0 0 0 0 0 0 0 |
           |                           0 0 2 5 7 8 7 6 4 3 2 1 0 0 0 0 0 0 0 |
           |                           0 0 2 5 7 8 7 6 4 3 2 1 0 0 0 0 0 0 0 |
           |                           0 0 2 5 7 8 7 6 4 3 2 1 0 0 0 0 0 0 0 |
           |                           0 0 2 5 7 8 7 5 4 3 2 1 0 0 0 0 0 0 0 |
           |                           0 0 2 5 7 8 7 5 4 2 1 1 0 0 0 0 0 0 0 |
           |                           0 0 2 5 7 7 7 5 4 2 1 1 0 0 0 0 0 0 0 |
           |                           0 0 2 5 7 7 7 5 4 2 1 1 0 0 0 0 0 0 0 |
           |                           0 0 2 5 7 7 6 5 4 2 1 1 0 0 0 0 0 0 0 |
           |                           0 0 2 4 6 7 6 5 3 2 1 1 0 0 0 0 0 0 0 |
           |                           0 0 2 4 6 7 6 5 3 2 1 1 0 0 0 0 0 0 0 |
           |                           0 0 2 4 6 7 6 5 3 2 1 1 0 0 0 0 0 0 0 |
           |                           0 0 2 4 6 7 6 5 3 2 1 1 0 0 0 0 0 0 0 |
           |                           0 0 2 4 6 6 6 4 3 2 1 1 0 0 0 0 0 0 0 |
           |                           0 0 2 4 6 6 6 4 3 2 1 1 0 0 0 0 0 0 0 |
           |                           0 0 2 4 6 6 5 4 3 2 1 1 0 0 0 0 0 0 0 |
           |                           0 0 2 4 5 6 5 4 3 2 1 1 0 0 0 0 0 0 0 |
           |                           0 0 1 4 5 6 5 4 3 2 1 0 0 0 0 0 0 0 0 |
           |                           0 0 1 3 5 6 5 4 3 2 1 0 0 0 0 0 0 0 0 |
           |                           0 0 1 3 5 5 5 4 3 2 1 0 0 0 0 0 0 0 0 |
           |                           0 0 1 3 5 5 5 4 3 2 1 0 0 0 0 0 0 0 0 |
           |                           0 0 1 3 5 5 4 3 2 2 1 0 0 0 0 0 0 0 0 |
           |                           0 0 1 3 4 5 4 3 2 1 1 0 0 0 0 0 0 0 0 |
           |                           0 0 1 3 4 5 4 3 2 1 1 0 0 0 0 0 0 0 0 |
        SE |                           0 0 1 3 4 4 4 3 2 1 1 0 0 0 0 0 0 0 0 |
           |                           0 0 1 3 4 4 4 3 2 1 1 0 0 0 0 0 0 0 0 |
           |                           0 0 1 3 4 4 4 3 2 1 1 0 0 0 0 0 0 0 0 |
           |                           0 0 1 2 4 4 4 3 2 1 1 0 0 0 0 0 0 0 0 |
           |                           0 0 1 2 3 4 3 3 2 1 1 0 0 0 0 0 0 0 0 |
           |                           0 0 1 2 3 4 3 2 2 1 1 0 0 0 0 0 0 0 0 |
           |                           0 0 1 2 3 3 3 2 2 1 0 0 0 0 0 0 0 0 0 |
           |                           0 0 1 2 3 3 3 2 2 1 0 0 0 0 0 0 0 0 0 |
           |                           0 0 1 2 3 3 3 2 1 1 0 0 0 0 0 0 0 0 0 |
           |                           0 0 1 2 3 3 3 2 1 1 0 0 0 0 0 0 0 0 0 |
           |                           0 0 1 2 3 3 2 2 1 1 0 0 0 0 0 0 0 0 0 |
           |                           0 0 0 2 2 3 2 2 1 1 0 0 0 0 0 0 0 0 0 |
           |                           0 0 0 1 2 2 2 2 1 1 0 0 0 0 0 0 0 0 0 |
           |                           0 0 0 1 2 2 2 2 1 1 0 0 0 0 0 0 0 0 0 |
           |                           0 0 0 1 2 2 2 1 1 0 0 0 0 0 0 0 0 0 0 |
           |                           0 0 0 1 2 2 2 1 1 0 0 0 0 0 0 0 0 0 0 |
           |                           0 0 0 1 2 2 2 1 1 0 0 0 0 0 0 0 0 0 0 |
           |                           0 0 0 1 2 2 1 1 1 0 0 0 0 0 0 0 0 0 0 |
           |                           0 0 0 1 1 2 1 1 1 0 0 0 0 0 0 0 0 0 0 |
           |                           0 0 0 1 1 1 1 1 1 0 0 0 0 0 0 0 0 0 0 |
           |                           0 0 0 1 1 1 1 1 0 0 0 0 0 0 0 0 0 0 0 |
           |                           0 0 0 1 1 1 1 1 0 0 0 0 0 0 0 0 0 0 0 |
           |                           0 0 0 1 1 1 1 1 0 0 0 0 0 0 0 0 0 0   |
           |                           0 0 0 0 1 1 1 1 0 0 0 0 0 0 0 0 0 0   |
           |                           0 0 0 0 1 1 1 0 0 0 0 0 0 0 0 0 0 0   |
           |                           0 0 0 0 1 1 1 0 0 0 0 0 0 0 0 0 0 0   |
           |                           0 0 0 0 0 1 0 0 0 0 0 0 0 0 0 0 0 0   |
           |                           0 0 0 0 0 0 0 0 0 0 0 0 0 0 0 0 0     |
           |                             0 0 0 0 0 0 0 0 0 0 0 0 0 0 0 0     |
           |                             0 0 0 0 0 0 0 0 0 0 0 0 0 0 0 0     |
           |                             0 0 0 0 0 0 0 0 0 0 0 0 0 0 0 0     |
           |                             0 0 0 0 0 0 0 0 0 0 0 0 0 0 0       |
           |                             0 0 0 0 0 0 0 0 0 0 0 0 0 0 0       |
           |                             0 0 0 0 0 0 0 0 0 0 0 0 0 0 0       |
           |                             0 0 0 0 0 0 0 0 0 0 0 0 0 0         |
           |                             0 0 0 0 0 0 0 0 0 0 0 0 0 0         |
           |                             0 0 0 0 0 0 0 0 0 0 0 0 0 0         |
           |                             0 0 0 0 0 0 0 0 0 0 0 0 0           |
           |                             0 0 0 0 0 0 0 0 0 0 0 0 0           |
           |                               0 0 0 0 0 0 0 0 0 0 0             |
           |                               0 0 0 0 0 0 0 0 0 0               |
           |                               0 0 0 0 0 0 0 0 0                 |
           |                                 0 0 0 0 0 0 0                   |
           |                                   0 0 0                         |
           |                                                                 |
         S |                                                                 |
           |                                                                 |
           |                                                                 |
           |                                                                 |
           |                                                                 |
           |                                                                 |
           |                                                                 |
           |                                                                 |
           |                                                                 |
           |                                                                 |
           |                                                                 |
           |                                                                 |
           |                                                                 |
           |                                                                 |
           |                                                                 |
           |                                                                 |
           |                                                                 |
           |                                                                 |
           |                                                                 |
           |                                                                 |
           |                                                                 |
           |                                                                 |
           |                                                                 |
           |                                                                 |
           |                                                                 |
           |                                                                 |
           |                                                                 |
           |                                                                 |
           |                                                                 |
           |                                                                 |
           |                                                                 |
           |                                                                 |
           |                                                                 |
           |                                                                 |
           |                                                                 |
           |                                                                 |
           |                                                                 |
           |                                                                 |
           |                                                                 |
           |                                                                 |
           |                                                                 |
           |                                                                 |
           |                                                                 |
           |                                                                 |
           |                                                                 |
        SW |                                                                 |
           |                                                                 |
           |                                                                 |
           |                                                                 |
           |                                                                 |
           |                                                                 |
           |                                                                 |
           |                                                                 |
           |                                                                 |
           |                                                                 |
           |                                                                 |
           |                                                                 |
           |                                                                 |
           |                                                                 |
           |                                                                 |
           |                                                                 |
           |                                                                 |
           |                                                                 |
           |                                                                 |
           |                                                                 |
           |                                                                 |
           |                                                                 |
           |                                                                 |
           |                                                                 |
           |                                                                 |
           |                                                                 |
           |                                                                 |
           |                                                                 |
           |                                                                 |
           |                                                                 |
           |                                                                 |
           |                                                                 |
           |                                                                 |
           |                                                                 |
           |                                                                 |
           |                                                                 |
           |                                                                 |
           |                                                                 |
           |                                                                 |
           |                                                                 |
           |                                                                 |
           |                                                                 |
           |                                                                 |
           |                                                                 |
           |                                                                 |
         W |                                                                 |
           |                                                                 |
           |                                                                 |
           |                                                                 |
           |                                                                 |
           |                                                                 |
           |                                                                 |
           |                                                                 |
           |                                                                 |
           |                                                                 |
           |                                                                 |
           |                                                                 |
           |                                                                 |
           |                                                                 |
           |                                                                 |
           |                                                                 |
           |                                                                 |
           |                                                                 |
           |                                                                 |
           |                                                                 |
           |                                                                 |
           |                                                                 |
           |                                                                 |
           |                                                                 |
           |                                                                 |
           |                                                                 |
           |                                                                 |
           |                                                                 |
           |                                                                 |
           |                                                                 |
           |                                                                 |
           |                                                                 |
           |                                                                 |
           |                                                                 |
           |                                                                 |
           |                                                                 |
           |                                                                 |
           |                                                                 |
           |                                                                 |
           |                                                                 |
           |                                                                 |
           |                                                                 |
           |                                                                 |
           |                                                                 |
           |                                                                 |
        NW |                                                                 |
           |                                                                 |
           |                                                                 |
           |                                                                 |
           |                                                                 |
           |                                                                 |
           |                                                                 |
           |                                                                 |
           |                                                                 |
           |                                                                 |
           |                                                                 |
           |                                                                 |
           |                                                                 |
           |                                                                 |
           |                                                                 |
           |                                                                 |
           |                                                                 |
           |                                                                 |
           |                                                                 |
           |                                                                 |
           |                                                                 |
           |                                                                 |
           |                                                                 |
           |                                                                 |
           |                                                                 |
           |                                                                 |
           |                                                                 |
           |                                                                 |
           |                                                                 |
           |                                                                 |
           |                                                                 |
           |                                                                 |
           |                                                                 |
           |                                                                 |
           |                                                                 |
           |                                                                 |
           |                                                                 |
           |                                                                 |
           |                                                                 |
           |                                                                 |
           |                                                                 |
           |                                                                 |
           |                                                                 |
           |                                                                 |
           |                                                                 |
       ----+-----------------------------------------------------------------+
 

       Converting energy to action ... 

 Variable: Hs Max.:  0.500E+00 m
 
         1  23  45  67  89 111 133 155 177 199 221 243 265 287 309 331 353
       +-------------------------------------------------------------------+
     3 |                                                                   |
       | * * * * * * * * * * * * * * * * * * * * * * * * * * * * * * * * * |
       |                                                                   |
       +-------------------------------------------------------------------+
         1  23  45  67  89 111 133 155 177 199 221 243 265 287 309 331 353
 

       Writing restart file  ... 


  End of program 
 =========================================
         WAVEWATCH III Initial conditions 

