
                   *** WAVEWATCH III Grid preprocessor ***    
               ===============================================

  Comment character is '$'

  Grid name : 1-D PROPAGATION EQUATOR       


  Spectral discretization : 
 --------------------------------------------------
       Number of directions        : 360
       Directional increment (deg.):   1.0
       First direction       (deg.):   0.0
       Number of frequencies       :  32
       Frequency range        (Hz) :   0.0500-1.0011
       Increment factor            :   1.102


  Model definition :
 --------------------------------------------------
       Dry run (no calculations)   :  ---/NO
       Propagation in X-direction  :  YES/--
       Propagation in Y-direction  :  ---/NO
       Refraction                  :  ---/NO
       Current-induced k-shift     :  ---/NO
       Source term calc. and int.  :  ---/NO


  Time steps : 
 --------------------------------------------------
       Maximum global time step      (s) : 3600.00
       Maximum CFL time step X-Y     (s) : 3600.00
       Maximum CFL time step k-theta (s) : 3600.00
       Minimum source term time step (s) : 3600.00

  Preprocessing namelists ...
  Preprocessing namelists finished.


  Linear input not defined.


  Wind input not defined.


  Nonlinear interactions not defined.


  Dissipation not defined.


  Bottom friction not defined.


  Surf breaking not defined.


  Triad interactions not defined.


  Bottom scattering not defined.


  Propagation scheme : 
 --------------------------------------------------
       Type of scheme (structured) : First order upstream          
                                     (default values)  
       CFLmax depth refraction     :    0.700


  Ice scattering not defined.


  Spectral output on full grid (default values) :  
 --------------------------------------------------
       Second order pressure at K=0:   0   1  15
       Spectrum of Uss             :   0   1  32
       Frequency spectrum          :   0   1  32

  Miscellaneous (default values) :  
 --------------------------------------------------
       Ice concentration cut-offs  :    0.50  0.50
       Space-time extremes DX-DY set to grid size 
       Space-time extremes Dt set to 100*T02 

    Dynamic source term integration scheme :
       Xp                      (-) :    0.150
       Xr                      (-) :    0.100
       Xfilt                   (-) :    0.050

    Wave field partitioning :
       Levels                  (-) :  100
       Minimum wave height     (m) :    0.050
       Wind area multiplier    (-) :    1.700
       Cut-off wind sea fract. (-) :    0.333
       Combine wind seas           :  YES/--
       Number of swells in fld out :    5

    Miche-style limiting wave height :
       Hs,max/d factor         (-) :    1.600
       Hrms,max/d factor       (-) :    1.131
       Limiter activated           :  ---/NO


  Equivalent namelists ...

  &PRO1 CFLTM = 0.70 /
  &UNST UGOBCAUTO =  T, UGOBCDEPTH = -10.000
,       EXPFSN =  T,EXPFSPSI =  F,EXPFSFCT =  F,IMPFSN =  F

  &OUTS P2SF  = 0, I1P2SF = 1, I2P2SF = 15,
        US3D  = 0, I1US3D =  1, I2US3D = 32,
        E3D   = 0, I1E3D  =  1, I2E3D  = 32,
        TH1MF = 0, I1TH1M =  1, I2TH1M = 32,
        STH1MF= 0, I1STH1M=  1, I2STH1M= 32,
        TH2MF = 0, I1TH2M =  1, I2TH2M = 32,
        STH2MF= 0, I1STH2M=  1, I2STH2M= 32 /
  &MISC CICE0 = 0.500, CICEN = 0.500, LICE =      0.0, PMOVE = 0.500,
        XSEED = 1.000, FLAGTR = 0, XP = 0.150, XR = 0.100, XFILT = 0.050
        IHM =  100, HSPM = 0.050, WSM = 1.700, WSC = 0.333, FLC = .TRUE.
        NOSW =  5, FMICHE = 1.600, RWNDC = 1.000, WCOR1 = 99.00, WCOR2 =  0.00,
        FACBERG = 1.0, GSHIFT =   0.000E+00 /

  Equivalent namelists finished.


  The spatial grid: 
 --------------------------------------------------

       Grid type                   : rectilinear
       Coordinate system           : spherical
       Index closure type          : simple
       Dimensions                  :    360       3

       Increments           (deg.) :    1.0000    1.0000
       Longitude range      (deg.) : -180.0000  179.0000
       Latitude range       (deg.) :   -1.0000    1.0000

       Bottom level unit           :    10
       Limiting depth          (m) :   -5.00
       Minimum depth           (m) :    5.75
       Scale factor                :-2500.00
       Layout indicator            :     2
       Format indicator            :     1
       Sub-grid information        : Not available.

  Processing boundary points
  Processing excluded points

  Input boundary points : 
 --------------------------------------------------
       No boundary points.


  Excluded points : 
 --------------------------------------------------
       Number of excluded points   :   720


  Status map, printed in  5 part(s) 
 -----------------------------------

  333333333333333333333333333333333333333333333333333333333333333333333333333333
  111111111111111111111111111111111111111111111111111111111111111111111111111111
  333333333333333333333333333333333333333333333333333333333333333333333333333333
  
  333333333333333333333333333333333333333333333333333333333333333333333333333333
  111111111111111111111111111111111111111111111111111111111111111111111111111111
  333333333333333333333333333333333333333333333333333333333333333333333333333333
  
  333333333333333333333333333333333333333333333333333333333333333333333333333333
  111111111111111111111111111111111111111111111111111111111111111111111111111111
  333333333333333333333333333333333333333333333333333333333333333333333333333333
  
  333333333333333333333333333333333333333333333333333333333333333333333333333333
  111111111111111111111111111111111111111111111111111111111111111111111111111111
  333333333333333333333333333333333333333333333333333333333333333333333333333333
  
  333333333333333333333333333333333333333333333333
  111111111111111111111111111111111111111111111111
  333333333333333333333333333333333333333333333333
  
  Legend : 
 -----------------------------
    0 : Land point            
    1 : Sea point             
    2 : Active boundary point 
    3 : Excluded point        


  Output boundary points : 
 --------------------------------------------------
       No boundary points.


  Writing model definition file ...


  Summary grid statistics : 
 --------------------------------------------------
       Number of longitudes      :       360
       Number of latitides       :         3
       Number of grid points     :      1080
       Number of sea points      :       360 (33.3%)
       Number of input b. points :         0
       Number of land points     :         0
       Number of excluded points :       720


  End of program 
 ========================================
         WAVEWATCH III Grid preprocessor 

