! -------------------------------------------------------------------- !
! WAVEWATCH III - ww3_grid.nml - Grid pre-processing                   !
! -------------------------------------------------------------------- !

! -------------------------------------------------------------------- !
! Define the spectrum parameterization via SPECTRUM_NML namelist
! -------------------------------------------------------------------- !
&SPECTRUM_NML
  SPECTRUM%XFR       =  1.1
  SPECTRUM%FREQ1     =  0.0373
  SPECTRUM%NK        =  32
  SPECTRUM%NTH       =  24
/

! -------------------------------------------------------------------- !
! Define the run parameterization via RUN_NML namelist
! -------------------------------------------------------------------- !
&RUN_NML
  RUN%FLCX         =  T
  RUN%FLCY         =  T
  RUN%FLCTH        =  T
  RUN%FLCK         =  T
  RUN%FLSOU        =  T
/

! -------------------------------------------------------------------- !
! Define the timesteps parameterization via TIMESTEPS_NML namelist
! -------------------------------------------------------------------- !
&TIMESTEPS_NML
  TIMESTEPS%DTMAX        =  180.
  TIMESTEPS%DTXY         =  45.
  TIMESTEPS%DTKTH        =  45.
  TIMESTEPS%DTMIN        =  10.
/

! -------------------------------------------------------------------- !
! Define the grid to preprocess via GRID_NML namelist
! -------------------------------------------------------------------- !
&GRID_NML
  GRID%NAME         =  'BREST 3km Grid'
  GRID%NML          =  '../input_oasacm6/namelists_BREST.nml'
  GRID%TYPE         =  'SMCG'
  GRID%COORD        =  'SPHE'
  GRID%CLOS         =  'NONE'
  GRID%ZLIM         =  -0.1
  GRID%DMIN         =  10.0
/

! -------------------------------------------------------------------- !
! Define the rectilinear grid type via RECT_NML namelist
! -------------------------------------------------------------------- !
&RECT_NML
  RECT%NX           =  52
  RECT%NY           =  60
  RECT%SX           =  0.0380
  RECT%SY           =  0.0250
  RECT%X0           =  -6.1285
  RECT%Y0           =  47.6313
/

! -------------------------------------------------------------------- !
! Define the spherical multiple-cell grid via SMC_NML namelist
! -------------------------------------------------------------------- !
&SMC_NML
  SMC%MCELS%FILENAME        =  '../input_oasacm6/BrestSMCels.dat'
  SMC%ISIDE%FILENAME        =  '../input_oasacm6/BrestISides.dat'
  SMC%JSIDE%FILENAME        =  '../input_oasacm6/BrestJSides.dat'
  SMC%SUBTR%FILENAME        =  '../input_oasacm6/BrestObstrs.dat'
/

! -------------------------------------------------------------------- !
! WAVEWATCH III - end of namelist                                      !
! -------------------------------------------------------------------- !
