! -------------------------------------------------------------------- !
! WAVEWATCH III - ww3_grid.nml - Grid pre-processing                   !
! -------------------------------------------------------------------- !

! -------------------------------------------------------------------- !
! Define the spectrum parameterization via SPECTRUM_NML namelist
! -------------------------------------------------------------------- !
&SPECTRUM_NML
  SPECTRUM%XFR       =  1.1
  SPECTRUM%FREQ1     =  0.0373
  SPECTRUM%NK        =  32
  SPECTRUM%NTH       =  24
/

! -------------------------------------------------------------------- !
! Define the run parameterization via RUN_NML namelist
! -------------------------------------------------------------------- !
&RUN_NML
  RUN%FLCX         =  T
  RUN%FLCY         =  T
  RUN%FLCTH        =  T
  RUN%FLCK         =  T
  RUN%FLSOU        =  T
/

! -------------------------------------------------------------------- !
! Define the timesteps parameterization via TIMESTEPS_NML namelist
! -------------------------------------------------------------------- !
&TIMESTEPS_NML
  TIMESTEPS%DTMAX        =  180.
  TIMESTEPS%DTXY         =  45.
  TIMESTEPS%DTKTH        =  45.
  TIMESTEPS%DTMIN        =  10.
/

! -------------------------------------------------------------------- !
! Define the grid to preprocess via GRID_NML namelist
! -------------------------------------------------------------------- !
&GRID_NML
  GRID%NAME         =  'WW3 Brest3km Grid BrestISides.dat BrestJSides.dat BrestObstrs.dat BrestSMCels.dat namcouple namelists_BREST.nml namelists_WW3.nml prep_env.sh rmp_toyt_to_ww3t_NEARESTSTOD.nc rmp_ww3t_to_toyt_NEARESTSTOD.nc switch_OASACM6 TOYNAMELIST.nam ww3_grid_clean.inp ww3_grid.inp ww3_grid.nml ww3_ounf.inp ww3_ounf.nml ww3_shel.inp ww3_shel.nml ww3_strt.inp'
  GRID%NML          =  '../input_oasacm6/namelists_WW3.nml'
  GRID%TYPE         =  'SMCG'
  GRID%COORD        =  'SPHE'
  GRID%CLOS         =  'NONE'
  GRID%ZLIM         =  52
  GRID%DMIN         =  60
/

! -------------------------------------------------------------------- !
! WAVEWATCH III - end of namelist                                      !
! -------------------------------------------------------------------- !
