! -------------------------------------------------------------------- !
! WAVEWATCH III ww3_prnc.nml - Field preprocessor                      !
! -------------------------------------------------------------------- !


! -------------------------------------------------------------------- !
! Define the forcing fields to preprocess via FORCING_NML namelist
! -------------------------------------------------------------------- !
&FORCING_NML
  FORCING%FIELD%AIR_DENSITY    = T
  FORCING%GRID%LATLON          = T
/

! -------------------------------------------------------------------- !
! Define the content of the input file via FILE_NML namelist
! -------------------------------------------------------------------- !
&FILE_NML
  FILE%FILENAME      = '../input_oasacm6/density.nc'
  FILE%LONGITUDE     = 'longitude'
  FILE%LATITUDE      = 'latitude'
  FILE%VAR(1)        = 'rho'
/

! -------------------------------------------------------------------- !
! WAVEWATCH III - end of namelist                                      !
! -------------------------------------------------------------------- !
