! -------------------------------------------------------------------- !
! WAVEWATCH III ww3_shel.nml - single-grid model                       !
! -------------------------------------------------------------------- !


! -------------------------------------------------------------------- !
! Define top-level model parameters via DOMAIN_NML namelist
! -------------------------------------------------------------------- !
&DOMAIN_NML
  DOMAIN%STOP    = '19680607 120000'
/

! -------------------------------------------------------------------- !
! Define each forcing via the INPUT_NML namelist
! -------------------------------------------------------------------- !
&INPUT_NML
  INPUT%FORCING%WINDS         = 'H'
/

! -------------------------------------------------------------------- !
! Define the output types point parameters via OUTPUT_TYPE_NML namelist
! -------------------------------------------------------------------- !
&OUTPUT_TYPE_NML
  TYPE%FIELD%LIST          = 'DPT WND MSS MSD ICE HS MSS FAW WCC WCF WCH WCM FOC TAW CHA FWS'
  TYPE%POINT%FILE          = '../input_UPD0F_U/points.list'
/

! -------------------------------------------------------------------- !
! Define output dates via OUTPUT_DATE_NML namelist
! -------------------------------------------------------------------- !
&OUTPUT_DATE_NML
  DATE%FIELD          = '19680606 000000' '3600' '19680618 000000'
  DATE%POINT          = '19680606 000000' '60' '19680618 000000'
  DATE%RESTART        = '19680607 120000' '172600' '19680608 000000'
/

! -------------------------------------------------------------------- !
! Define homogeneous input via HOMOG_COUNT_NML and HOMOG_INPUT_NML namelist
! -------------------------------------------------------------------- !
&HOMOG_COUNT_NML
  HOMOG_COUNT%N_CUR                =  1
  HOMOG_COUNT%N_WND                =  5
/

&HOMOG_INPUT_NML
  HOMOG_INPUT(1)%NAME        = 'CUR'
  HOMOG_INPUT(1)%VALUE1      = 2.
  HOMOG_INPUT(1)%VALUE2      = 90.

  HOMOG_INPUT(2)%NAME        = 'WND'
  HOMOG_INPUT(2)%VALUE1      = 12.
  HOMOG_INPUT(2)%VALUE2      = 270.
  HOMOG_INPUT(2)%VALUE3      = 0.

  HOMOG_INPUT(3)%NAME        = 'WND'
  HOMOG_INPUT(3)%DATE        = '19680606 060000'
  HOMOG_INPUT(3)%VALUE1      = 12.
  HOMOG_INPUT(3)%VALUE2      = 180.
  HOMOG_INPUT(3)%VALUE3      = 0.

  HOMOG_INPUT(4)%NAME        = 'WND'
  HOMOG_INPUT(4)%DATE        = '19680606 120000'
  HOMOG_INPUT(4)%VALUE1      = 12.
  HOMOG_INPUT(4)%VALUE2      = 135.
  HOMOG_INPUT(4)%VALUE3      = 0.

  HOMOG_INPUT(5)%NAME        = 'WND'
  HOMOG_INPUT(5)%DATE        = '19680606 180000'
  HOMOG_INPUT(5)%VALUE1      = 12.
  HOMOG_INPUT(5)%VALUE2      = 90.
  HOMOG_INPUT(5)%VALUE3      = 0.

  HOMOG_INPUT(6)%NAME        = 'WND'
  HOMOG_INPUT(6)%DATE        = '19680607 000000'
  HOMOG_INPUT(6)%VALUE1      = 12.
  HOMOG_INPUT(6)%VALUE2      = 45.
  HOMOG_INPUT(6)%VALUE3      = 0.
/

! -------------------------------------------------------------------- !
! WAVEWATCH III - end of namelist                                      !
! -------------------------------------------------------------------- !
