! -------------------------------------------------------------------- !
! WAVEWATCH III ww3_shel.nml - single-grid model                       !
! -------------------------------------------------------------------- !


! -------------------------------------------------------------------- !
! Define top-level model parameters via DOMAIN_NML namelist
! -------------------------------------------------------------------- !
&DOMAIN_NML
  DOMAIN%STOP    = '19680606 120000'
/

! -------------------------------------------------------------------- !
! Define each forcing via the INPUT_NML namelist
! -------------------------------------------------------------------- !
&INPUT_NML
  INPUT%FORCING%ICE_PARAM1    = 'H'
  INPUT%FORCING%ICE_PARAM2    = 'H'
  INPUT%FORCING%WATER_LEVELS  = 'H'
  INPUT%FORCING%ICE_CONC      = 'T'
/

! -------------------------------------------------------------------- !
! Define the output types point parameters via OUTPUT_TYPE_NML namelist
! -------------------------------------------------------------------- !
&OUTPUT_TYPE_NML
  TYPE%FIELD%LIST          = 'DPT WLV HS DIR ICE'
  TYPE%POINT%FILE          = '../input_IC2_nrl/points.list'
/

! -------------------------------------------------------------------- !
! Define output dates via OUTPUT_DATE_NML namelist
! -------------------------------------------------------------------- !
&OUTPUT_DATE_NML
  DATE%FIELD          = '19680606 000000' '900' '19680606 120000'
  DATE%POINT          = '19680606 000000' '900' '19680606 120000'
/

! -------------------------------------------------------------------- !
! Define homogeneous input via HOMOG_COUNT_NML and HOMOG_INPUT_NML namelist
! -------------------------------------------------------------------- !
&HOMOG_COUNT_NML
  HOMOG_COUNT%N_IC1                =  1
  HOMOG_COUNT%N_IC2                =  1
  HOMOG_COUNT%N_LEV                =  1
/

&HOMOG_INPUT_NML
  HOMOG_INPUT(1)%NAME        = 'IC1'
  HOMOG_INPUT(1)%DATE        = '20120801 000000'
  HOMOG_INPUT(1)%VALUE1      = 0.20

  HOMOG_INPUT(2)%NAME        = 'IC2'
  HOMOG_INPUT(2)%DATE        = '20120801 000000'
  HOMOG_INPUT(2)%VALUE1      = 15.0e-6

  HOMOG_INPUT(3)%NAME        = 'LEV'
  HOMOG_INPUT(3)%VALUE1      = 1.1
/

! -------------------------------------------------------------------- !
! WAVEWATCH III - end of namelist                                      !
! -------------------------------------------------------------------- !
