$ WAVEWATCH III Grid output post-processing (GrADS)
$ -------------------------------------------------
  19680606 000000 1800. 999
$
  N
  HS FP DP 
$
  1 43 1 43  T T
E
