$ WAVEWATCH III multi-scale input file
$ ------------------------------
  1 0 F 1 F F
$
  'ww3' 'no' 'no' 'no' 'no' 'no' 'no' 'no'   1  1  0.00 1.00  F
$
   19680606 000000 19680606 044800
$
   T  T
$
   19680606 000000    360  19680606 044800
$
N
HS T0M1 FP DIR  
$
   19680606 000000      0  19680608 000000
   19680606 000000      0  19680608 000000
   19680606 000000      0  19680608 000000
   19680606 000000      0  19680608 000000
   19680606 000000      0  19680608 000000
$
  'the_end'  0
$
  'STP'
$
$ End of input file
