$ WAVEWATCH III Initial conditions input file
$ -------------------------------------------
  1
$  fp        sip    thm  ncos   xm   six      ym     siy     hmax
$  2.1a suggestion:
   0.040469  0.0001 225. 200   0.E3  999.E3   0.E3 999.E3  2.501
$  2.1b suggestion:
$  0.040469  0.0001 210. 200  2.5E+6 100.0E+3 2.5E+6 100.E+3  2.501
$  2.1c suggestion:
$  0.040469  0.0001 210. 200  4.5E+6 100.0E+3  4.5E+6 100.E+3  2.501
$  0.040469  0.0001 210. 200  4.5E+6 100.0E+3  4.5E+6 100.E+3  2.501
$  0.040469  0.0001 270. 200   0.E3  -15.E3   0.E3  15.E3  2.501
$  0.040469  0.0001 225. 200   0.E3  -15.E3   0.E3  15.E3  2.501
$  0.040469  0.0001 225.   2   0.E3  -15.E3   0.E3  15.E3  2.501
$  0.040469  0.0001 225. 200   0.E3 -999.E3   0.E3  15.E3  2.501
$  0.040469  0.0001 225. 200   0.E3 -999.E3   0.E3 999.E3  2.501
$  0.040469  0.0001 225.   2   0.E3 -999.E3   0.E3 999.E3  2.501
$  0.040469  0.0001 180. 200   0.E3  -15.E3   0.E3  15.E3  2.501
