$ WAVEWATCH III shell input file
$ ------------------------------
   F T
   F T
   F T
   F F
   F F
   F F
   F
   F
   F
$
   19680606 000000
   19680606 050000
$  19680608 000000
$
   1
$
   19680606 000000    360  19680608 000000
$
N
HS FP DIR DP
$
   19680606 000000      0  19680608 000000
   19680606 000000      0  19680608 000000
   19680606 000000      0  19680608 000000
   19680606 000000      0  19680608 000000
   19680606 000000      0  19680608 000000
