! -------------------------------------------------------------------- !
! WAVEWATCH III ww3_multi.nml - multi-grid model                       !
! -------------------------------------------------------------------- !


! -------------------------------------------------------------------- !
! Define top-level model parameters via DOMAIN_NML namelist
! -------------------------------------------------------------------- !
&DOMAIN_NML
  DOMAIN%FLGHG1 = T
  DOMAIN%FLGHG2 = T
  DOMAIN%STOP   = '19680606 044800'
/

! -------------------------------------------------------------------- !
! Define each input grid via the INPUT_GRID_NML namelist
! -------------------------------------------------------------------- !
&INPUT_GRID_NML
/

! -------------------------------------------------------------------- !
! Define each model grid via the MODEL_GRID_NML namelist
! -------------------------------------------------------------------- !
&MODEL_GRID_NML
  MODEL(1)%NAME                  = 'ww3'
/

! -------------------------------------------------------------------- !
! Define the output types point parameters via OUTPUT_TYPE_NML namelist
! -------------------------------------------------------------------- !
&OUTPUT_TYPE_NML
  ALLTYPE%FIELD%LIST       = 'HS T0M1 FP DIR'
/

! -------------------------------------------------------------------- !
! Define output dates via OUTPUT_DATE_NML namelist
! -------------------------------------------------------------------- !
&OUTPUT_DATE_NML
  ALLDATE%FIELD          = '19680606 000000' '360' '19680606 044800'
/

! -------------------------------------------------------------------- !
! Define homogeneous input via HOMOG_COUNT_NML and HOMOG_INPUT_NML namelist
! -------------------------------------------------------------------- !
&HOMOG_COUNT_NML
/

&HOMOG_INPUT_NML
/

! -------------------------------------------------------------------- !
! WAVEWATCH III - end of namelist                                      !
! -------------------------------------------------------------------- !
