! -------------------------------------------------------------------- !
! WAVEWATCH III - ww3_grid.nml - Grid pre-processing                   !
! -------------------------------------------------------------------- !

! -------------------------------------------------------------------- !
! Define the spectrum parameterization via SPECTRUM_NML namelist
! -------------------------------------------------------------------- !
&SPECTRUM_NML
  SPECTRUM%XFR       =  1.1
  SPECTRUM%FREQ1     =  0.03679
  SPECTRUM%NK        =  3
  SPECTRUM%NTH       =  12
/

! -------------------------------------------------------------------- !
! Define the run parameterization via RUN_NML namelist
! -------------------------------------------------------------------- !
&RUN_NML
  RUN%FLCX         =  T
  RUN%FLCY         =  T
/

! -------------------------------------------------------------------- !
! Define the timesteps parameterization via TIMESTEPS_NML namelist
! -------------------------------------------------------------------- !
&TIMESTEPS_NML
  TIMESTEPS%DTMAX        =  360.
  TIMESTEPS%DTXY         =  360.
  TIMESTEPS%DTKTH        =  360.
  TIMESTEPS%DTMIN        =  360.
/

! -------------------------------------------------------------------- !
! Define the grid to preprocess via GRID_NML namelist
! -------------------------------------------------------------------- !
&GRID_NML
  GRID%NAME         =  '2-D PROPAGATION TEST #1-b pseud'
  GRID%NML          =  '../input/namelists_b_pseudo.nml'
  GRID%TYPE         =  'CURV'
  GRID%COORD        =  'CART'
  GRID%CLOS         =  'NONE'
  GRID%ZLIM         =  -5.
  GRID%DMIN         =  5.75
/

! -------------------------------------------------------------------- !
! Define the curvilinear grid type via CURV_NML namelist
! -------------------------------------------------------------------- !
&CURV_NML
  CURV%NX              =  273
  CURV%NY              =  274
  CURV%XCOORD%OFF       =  -2.2E+6
  CURV%XCOORD%FILENAME  =  '../input/xgrd.2.1b.inp'
  CURV%YCOORD%OFF       =  -2.2E+6
  CURV%YCOORD%FILENAME  =  '../input/ygrd.2.1b.inp'
/

! -------------------------------------------------------------------- !
! Define the depth to preprocess via DEPTH_NML namelist
! -------------------------------------------------------------------- !
&DEPTH_NML
  DEPTH%SF        =  -2500.
  DEPTH%FILENAME  =  '../input/b_pseudo.depth'
  DEPTH%IDLA      =  4
/

! -------------------------------------------------------------------- !
! Define the input boundary points via INBND_COUNT_NML and
!                                      INBND_POINT_NML namelist
! -------------------------------------------------------------------- !
&INBND_COUNT_NML
  INBND_COUNT%N_POINT    =  3
/

&INBND_POINT_NML
  INBND_POINT(1)         =  2 5 T
  INBND_POINT(2)         =  2 2 T
  INBND_POINT(3)         =  42 2 T
/

! -------------------------------------------------------------------- !
! WAVEWATCH III - end of namelist                                      !
! -------------------------------------------------------------------- !
