! -------------------------------------------------------------------- !
! WAVEWATCH III ww3_bounc.nml - Boundary input post-processing         !
! -------------------------------------------------------------------- !

! -------------------------------------------------------------------- !
! Define the input boundaries to preprocess via BOUND_NML namelist
! -------------------------------------------------------------------- !
&BOUND_NML
  BOUND%FILE        =  '../input/spec.list'
/

! -------------------------------------------------------------------- !
! WAVEWATCH III - end of namelist                                      !
! -------------------------------------------------------------------- !
