! -------------------------------------------------------------------- !
! WAVEWATCH III ww3_prnc.nml - Field preprocessor                      !
! -------------------------------------------------------------------- !


! -------------------------------------------------------------------- !
! Define the forcing fields to preprocess via FORCING_NML namelist
! -------------------------------------------------------------------- !
&FORCING_NML
  FORCING%FIELD%WATER_LEVELS   = T
  FORCING%GRID%ASIS            = T
/

! -------------------------------------------------------------------- !
! Define the content of the input file via FILE_NML namelist
! -------------------------------------------------------------------- !
&FILE_NML
  FILE%FILENAME      = '../input/level.nc'
  FILE%LONGITUDE     = 'time'
  FILE%LATITUDE      = ''
  FILE%VAR(1)        = 'wlv'
/

! -------------------------------------------------------------------- !
! WAVEWATCH III - end of namelist                                      !
! -------------------------------------------------------------------- !
