\begin{footnotesize}
\begin{verbatim}
! -------------------------------------------------------------------- !
! WAVEWATCH III - ww3_trnc.nml - Track output post-processing          !
! -------------------------------------------------------------------- !


! -------------------------------------------------------------------- !
! Define the output fields to postprocess via TRACK_NML namelist
!
! * namelist must be terminated with /
! * definitions & defaults:
!     TRACK%TIMESTART            = '19000101 000000'  ! Stop date for th
!     TRACK%TIMESTRIDE           = '0'                ! Time stride for 
!     TRACK%TIMECOUNT            = '1000000000'       ! Number of time s
!     TRACK%TIMESPLIT            = 6                  ! [4(yearly),6(mon
! -------------------------------------------------------------------- !
&TRACK_NML
  TRACK%TIMESTART        =  '20100101 000000'
  TRACK%TIMESTRIDE       =  '3600'
/


! -------------------------------------------------------------------- !
! Define the content of the output file via FILE_NML namelist
!
! * namelist must be terminated with /
! * definitions & defaults:
!     FILE%PREFIX        = 'ww3.'            ! Prefix for output file na
!     FILE%NETCDF        = 3                 ! Netcdf version [3|4]
! -------------------------------------------------------------------- !
&FILE_NML
  FILE%NETCDF        = 4
/


! -------------------------------------------------------------------- !
! WAVEWATCH III - end of namelist                                      !
! -------------------------------------------------------------------- !
\end{verbatim}
\end{footnotesize}
