$ WAVEWATCH III Initial conditions input file
$ -------------------------------------------
$ 2
$ 0.0  0.30  270.  3.3 0. 0. 0. 1. 0. 1.
$
  4
  0.0
0.000000e+00 0.000000e+00 0.000000e+00 1.746471e-16 5.630616e-11 2.886555e-07 8.744921e-05 3.837827e-03 4.501267e-02 2.143694e-01 5.516262e-01 9.322360e-01 1.182192e+00 1.232155e+00 1.123209e+00 9.343646e-01 7.301796e-01 5.467696e-01 3.976646e-01 2.835182e-01 1.994060e-01 1.389507e-01 9.621163e-02 6.633035e-02 4.559440e-02
0.000000e+00 0.000000e+00 0.000000e+00 1.694007e-16 5.461472e-11 2.799843e-07 8.482223e-05 3.722538e-03 4.366049e-02 2.079298e-01 5.350553e-01 9.042316e-01 1.146679e+00 1.195141e+00 1.089468e+00 9.062962e-01 7.082450e-01 5.303447e-01 3.857187e-01 2.750013e-01 1.934158e-01 1.347766e-01 9.332143e-02 6.433779e-02 4.422474e-02
0.000000e+00 0.000000e+00 0.000000e+00 1.545158e-16 4.981586e-11 2.553828e-07 7.736910e-05 3.395448e-03 3.982415e-02 1.896595e-01 4.880413e-01 8.247789e-01 1.045923e+00 1.090127e+00 9.937387e-01 8.266621e-01 6.460132e-01 4.837445e-01 3.518265e-01 2.508376e-01 1.764208e-01 1.229341e-01 8.512149e-02 5.868458e-02 4.033882e-02
0.000000e+00 0.000000e+00 0.000000e+00 1.323462e-16 4.266838e-11 2.187410e-07 6.626834e-05 2.908276e-03 3.411026e-02 1.624475e-01 4.180181e-01 7.064414e-01 8.958560e-01 9.337178e-01 8.511591e-01 7.080543e-01 5.533245e-01 4.143379e-01 3.013472e-01 2.148480e-01 1.511083e-01 1.052958e-01 7.290844e-02 5.026463e-02 3.455109e-02
0.000000e+00 0.000000e+00 0.000000e+00 1.061812e-16 3.423280e-11 1.754957e-07 5.316703e-05 2.333307e-03 2.736663e-02 1.303315e-01 3.353755e-01 5.667773e-01 7.187445e-01 7.491210e-01 6.828842e-01 5.680714e-01 4.439318e-01 3.324229e-01 2.417706e-01 1.723723e-01 1.212341e-01 8.447870e-02 5.849437e-02 4.032727e-02 2.772031e-02
0.000000e+00 0.000000e+00 0.000000e+00 7.949997e-17 2.563077e-11 1.313970e-07 3.980719e-05 1.746993e-03 2.048993e-02 9.758174e-02 2.511022e-01 4.243572e-01 5.381380e-01 5.608815e-01 5.112887e-01 4.253261e-01 3.323804e-01 2.488915e-01 1.810184e-01 1.290585e-01 9.077031e-02 6.325085e-02 4.379588e-02 3.019382e-02 2.075474e-02
0.000000e+00 0.000000e+00 0.000000e+00 5.525942e-17 1.781562e-11 9.133241e-08 2.766948e-05 1.214312e-03 1.424229e-02 6.782783e-02 1.745380e-01 2.949653e-01 3.740529e-01 3.898616e-01 3.553903e-01 2.956388e-01 2.310334e-01 1.730013e-01 1.258236e-01 8.970695e-02 6.309329e-02 4.396486e-02 3.044196e-02 2.098734e-02 1.442635e-02
0.000000e+00 0.000000e+00 0.000000e+00 3.540605e-17 1.141490e-11 5.851889e-08 1.772850e-05 7.780393e-04 9.125380e-03 4.345893e-02 1.118307e-01 1.889914e-01 2.396647e-01 2.497937e-01 2.277072e-01 1.894229e-01 1.480287e-01 1.108461e-01 8.061820e-02 5.747741e-02 4.042540e-02 2.816935e-02 1.950490e-02 1.344709e-02 9.243313e-03
0.000000e+00 0.000000e+00 0.000000e+00 2.071062e-17 6.677096e-12 3.423037e-08 1.037021e-05 4.551108e-04 5.337852e-03 2.542112e-02 6.541489e-02 1.105497e-01 1.401909e-01 1.461158e-01 1.331963e-01 1.108021e-01 8.658875e-02 6.483897e-02 4.715727e-02 3.362116e-02 2.364666e-02 1.647754e-02 1.140931e-02 7.865821e-03 5.406837e-03
0.000000e+00 0.000000e+00 0.000000e+00 1.091544e-17 3.519135e-12 1.804097e-08 5.465575e-06 2.398642e-04 2.813292e-03 1.339809e-02 3.447664e-02 5.826475e-02 7.388700e-02 7.700970e-02 7.020056e-02 5.839778e-02 4.563623e-02 3.417310e-02 2.485404e-02 1.771989e-02 1.246287e-02 8.684417e-03 6.013227e-03 4.145647e-03 2.849650e-03
0.000000e+00 0.000000e+00 0.000000e+00 5.089806e-18 1.640952e-12 8.412399e-09 2.548566e-06 1.118473e-04 1.311822e-03 6.247451e-03 1.607625e-02 2.716851e-02 3.445307e-02 3.590917e-02 3.273411e-02 2.723054e-02 2.127991e-02 1.593472e-02 1.158929e-02 8.262681e-03 5.811364e-03 4.049493e-03 2.803932e-03 1.933091e-03 1.328775e-03
0.000000e+00 0.000000e+00 0.000000e+00 2.045934e-18 6.596086e-13 3.381507e-09 1.024439e-06 4.495891e-05 5.273091e-04 2.511269e-03 6.462124e-03 1.092085e-02 1.384900e-02 1.443430e-02 1.315803e-02 1.094578e-02 8.553820e-03 6.405231e-03 4.658513e-03 3.321325e-03 2.335977e-03 1.627763e-03 1.127088e-03 7.770388e-04 5.341238e-04
0.000000e+00 0.000000e+00 0.000000e+00 6.822151e-19 2.199459e-13 1.127561e-09 3.415985e-07 1.499151e-05 1.758308e-04 8.373806e-04 2.154790e-03 3.641547e-03 4.617937e-03 4.813106e-03 4.387535e-03 3.649862e-03 2.852264e-03 2.135819e-03 1.553377e-03 1.107493e-03 7.789295e-04 5.427761e-04 3.758267e-04 2.591029e-04 1.781031e-04
0.000000e+00 0.000000e+00 0.000000e+00 1.777245e-19 5.729833e-14 2.937419e-10 8.899015e-08 3.905453e-06 4.580584e-05 2.181469e-04 5.613464e-04 9.486630e-04 1.203023e-03 1.253867e-03 1.143001e-03 9.508290e-04 7.430461e-04 5.564043e-04 4.046719e-04 2.885141e-04 2.029197e-04 1.413991e-04 9.790698e-05 6.749916e-05 4.639782e-05
0.000000e+00 0.000000e+00 0.000000e+00 0.000000e+00 1.054313e-14 5.404971e-11 1.637455e-08 7.186193e-07 8.428461e-06 4.013991e-05 1.032900e-04 1.745578e-04 2.213612e-04 2.307166e-04 2.103168e-04 1.749564e-04 1.367235e-04 1.023806e-04 7.446126e-05 5.308777e-05 3.733805e-05 2.601801e-05 1.801528e-05 1.242012e-05 8.537387e-06
0.000000e+00 0.000000e+00 0.000000e+00 0.000000e+00 1.133772e-15 5.812323e-12 1.760864e-09 7.727788e-08 9.063682e-07 4.316510e-06 1.110746e-05 1.877136e-05 2.380443e-05 2.481049e-05 2.261676e-05 1.881422e-05 1.470278e-05 1.100967e-05 8.007312e-06 5.708879e-06 4.015207e-06 2.797889e-06 1.937302e-06 1.335618e-06 9.180818e-07
0.000000e+00 0.000000e+00 0.000000e+00 0.000000e+00 4.654979e-17 2.386392e-13 7.229657e-11 3.172833e-09 3.721317e-08 1.772249e-07 4.560440e-07 7.707042e-07 9.773494e-07 1.018655e-06 9.285865e-07 7.724639e-07 6.036588e-07 4.520289e-07 3.287598e-07 2.343920e-07 1.648542e-07 1.148742e-07 7.954070e-08 5.483706e-08 3.769410e-08
0.000000e+00 0.000000e+00 0.000000e+00 0.000000e+00 1.874666e-19 9.610544e-16 2.911548e-13 1.277772e-11 1.498659e-10 7.137251e-10 1.836593e-09 3.103802e-09 3.936009e-09 4.102357e-09 3.739630e-09 3.110888e-09 2.431072e-09 1.820424e-09 1.323991e-09 9.439502e-10 6.639054e-10 4.626246e-10 3.203285e-10 2.208413e-10 1.518027e-10
0.000000e+00 0.000000e+00 0.000000e+00 0.000000e+00 0.000000e+00 0.000000e+00 0.000000e+00 0.000000e+00 0.000000e+00 0.000000e+00 0.000000e+00 0.000000e+00 0.000000e+00 0.000000e+00 0.000000e+00 0.000000e+00 0.000000e+00 0.000000e+00 0.000000e+00 0.000000e+00 0.000000e+00 0.000000e+00 0.000000e+00 0.000000e+00 0.000000e+00
0.000000e+00 0.000000e+00 0.000000e+00 0.000000e+00 1.874666e-19 9.610544e-16 2.911548e-13 1.277772e-11 1.498659e-10 7.137251e-10 1.836593e-09 3.103802e-09 3.936009e-09 4.102357e-09 3.739630e-09 3.110888e-09 2.431072e-09 1.820424e-09 1.323991e-09 9.439502e-10 6.639054e-10 4.626246e-10 3.203285e-10 2.208413e-10 1.518027e-10
0.000000e+00 0.000000e+00 0.000000e+00 0.000000e+00 4.654979e-17 2.386392e-13 7.229657e-11 3.172833e-09 3.721317e-08 1.772249e-07 4.560440e-07 7.707042e-07 9.773494e-07 1.018655e-06 9.285865e-07 7.724639e-07 6.036588e-07 4.520289e-07 3.287598e-07 2.343920e-07 1.648542e-07 1.148742e-07 7.954070e-08 5.483706e-08 3.769410e-08
0.000000e+00 0.000000e+00 0.000000e+00 0.000000e+00 1.133772e-15 5.812323e-12 1.760864e-09 7.727788e-08 9.063682e-07 4.316510e-06 1.110746e-05 1.877136e-05 2.380443e-05 2.481049e-05 2.261676e-05 1.881422e-05 1.470278e-05 1.100967e-05 8.007312e-06 5.708879e-06 4.015207e-06 2.797889e-06 1.937302e-06 1.335618e-06 9.180818e-07
0.000000e+00 0.000000e+00 0.000000e+00 0.000000e+00 1.054313e-14 5.404971e-11 1.637455e-08 7.186193e-07 8.428461e-06 4.013991e-05 1.032900e-04 1.745578e-04 2.213612e-04 2.307166e-04 2.103168e-04 1.749564e-04 1.367235e-04 1.023806e-04 7.446126e-05 5.308777e-05 3.733805e-05 2.601801e-05 1.801528e-05 1.242012e-05 8.537387e-06
0.000000e+00 0.000000e+00 0.000000e+00 1.777245e-19 5.729833e-14 2.937419e-10 8.899015e-08 3.905453e-06 4.580584e-05 2.181469e-04 5.613464e-04 9.486630e-04 1.203023e-03 1.253867e-03 1.143001e-03 9.508290e-04 7.430461e-04 5.564043e-04 4.046719e-04 2.885141e-04 2.029197e-04 1.413991e-04 9.790698e-05 6.749916e-05 4.639782e-05
0.000000e+00 0.000000e+00 0.000000e+00 6.822151e-19 2.199459e-13 1.127561e-09 3.415985e-07 1.499151e-05 1.758308e-04 8.373806e-04 2.154790e-03 3.641547e-03 4.617937e-03 4.813106e-03 4.387535e-03 3.649862e-03 2.852264e-03 2.135819e-03 1.553377e-03 1.107493e-03 7.789295e-04 5.427761e-04 3.758267e-04 2.591029e-04 1.781031e-04
0.000000e+00 0.000000e+00 0.000000e+00 2.045934e-18 6.596086e-13 3.381507e-09 1.024439e-06 4.495891e-05 5.273091e-04 2.511269e-03 6.462124e-03 1.092085e-02 1.384900e-02 1.443430e-02 1.315803e-02 1.094578e-02 8.553820e-03 6.405231e-03 4.658513e-03 3.321325e-03 2.335977e-03 1.627763e-03 1.127088e-03 7.770388e-04 5.341238e-04
0.000000e+00 0.000000e+00 0.000000e+00 5.089806e-18 1.640952e-12 8.412399e-09 2.548566e-06 1.118473e-04 1.311822e-03 6.247451e-03 1.607625e-02 2.716851e-02 3.445307e-02 3.590917e-02 3.273411e-02 2.723054e-02 2.127991e-02 1.593472e-02 1.158929e-02 8.262681e-03 5.811364e-03 4.049493e-03 2.803932e-03 1.933091e-03 1.328775e-03
0.000000e+00 0.000000e+00 0.000000e+00 1.091544e-17 3.519135e-12 1.804097e-08 5.465575e-06 2.398642e-04 2.813292e-03 1.339809e-02 3.447664e-02 5.826475e-02 7.388700e-02 7.700970e-02 7.020056e-02 5.839778e-02 4.563623e-02 3.417310e-02 2.485404e-02 1.771989e-02 1.246287e-02 8.684417e-03 6.013227e-03 4.145647e-03 2.849650e-03
0.000000e+00 0.000000e+00 0.000000e+00 2.071062e-17 6.677096e-12 3.423037e-08 1.037021e-05 4.551108e-04 5.337852e-03 2.542112e-02 6.541489e-02 1.105497e-01 1.401909e-01 1.461158e-01 1.331963e-01 1.108021e-01 8.658875e-02 6.483897e-02 4.715727e-02 3.362116e-02 2.364666e-02 1.647754e-02 1.140931e-02 7.865821e-03 5.406837e-03
0.000000e+00 0.000000e+00 0.000000e+00 3.540605e-17 1.141490e-11 5.851889e-08 1.772850e-05 7.780393e-04 9.125380e-03 4.345893e-02 1.118307e-01 1.889914e-01 2.396647e-01 2.497937e-01 2.277072e-01 1.894229e-01 1.480287e-01 1.108461e-01 8.061820e-02 5.747741e-02 4.042540e-02 2.816935e-02 1.950490e-02 1.344709e-02 9.243313e-03
0.000000e+00 0.000000e+00 0.000000e+00 5.525942e-17 1.781562e-11 9.133241e-08 2.766948e-05 1.214312e-03 1.424229e-02 6.782783e-02 1.745380e-01 2.949653e-01 3.740529e-01 3.898616e-01 3.553903e-01 2.956388e-01 2.310334e-01 1.730013e-01 1.258236e-01 8.970695e-02 6.309329e-02 4.396486e-02 3.044196e-02 2.098734e-02 1.442635e-02
0.000000e+00 0.000000e+00 0.000000e+00 7.949997e-17 2.563077e-11 1.313970e-07 3.980719e-05 1.746993e-03 2.048993e-02 9.758174e-02 2.511022e-01 4.243572e-01 5.381380e-01 5.608815e-01 5.112887e-01 4.253261e-01 3.323804e-01 2.488915e-01 1.810184e-01 1.290585e-01 9.077031e-02 6.325085e-02 4.379588e-02 3.019382e-02 2.075474e-02
0.000000e+00 0.000000e+00 0.000000e+00 1.061812e-16 3.423280e-11 1.754957e-07 5.316703e-05 2.333307e-03 2.736663e-02 1.303315e-01 3.353755e-01 5.667773e-01 7.187445e-01 7.491210e-01 6.828842e-01 5.680714e-01 4.439318e-01 3.324229e-01 2.417706e-01 1.723723e-01 1.212341e-01 8.447870e-02 5.849437e-02 4.032727e-02 2.772031e-02
0.000000e+00 0.000000e+00 0.000000e+00 1.323462e-16 4.266838e-11 2.187410e-07 6.626834e-05 2.908276e-03 3.411026e-02 1.624475e-01 4.180181e-01 7.064414e-01 8.958560e-01 9.337178e-01 8.511591e-01 7.080543e-01 5.533245e-01 4.143379e-01 3.013472e-01 2.148480e-01 1.511083e-01 1.052958e-01 7.290844e-02 5.026463e-02 3.455109e-02
0.000000e+00 0.000000e+00 0.000000e+00 1.545158e-16 4.981586e-11 2.553828e-07 7.736910e-05 3.395448e-03 3.982415e-02 1.896595e-01 4.880413e-01 8.247789e-01 1.045923e+00 1.090127e+00 9.937387e-01 8.266621e-01 6.460132e-01 4.837445e-01 3.518265e-01 2.508376e-01 1.764208e-01 1.229341e-01 8.512149e-02 5.868458e-02 4.033882e-02
0.000000e+00 0.000000e+00 0.000000e+00 1.694007e-16 5.461472e-11 2.799843e-07 8.482223e-05 3.722538e-03 4.366049e-02 2.079298e-01 5.350553e-01 9.042316e-01 1.146679e+00 1.195141e+00 1.089468e+00 9.062962e-01 7.082450e-01 5.303447e-01 3.857187e-01 2.750013e-01 1.934158e-01 1.347766e-01 9.332143e-02 6.433779e-02 4.422474e-02
