$ WAVEWATCH III shell input file
$ ------------------------------
   F T
   F T
   T T
   T
   F
   F
   F
$
   19680606 000000
   19680606 120000
$
   1
$
   19680606 000000   3600  19680618 000000
$
N
$
DPT WND ICE HS MSS FAW WCC WCF WCH WCM FOC 
$
   19680606 000000     60  19680618 000000
     0.0   0.0  'The_point '
     0.0   0.0  'STOPSTRING'
   19680607 000000      0  19680608 000000
   19680607 000000      0  19680608 000000
   19680606 000000      0  19680608 000000
   19680606 000000      0  19680608 000000
$
   'WND' 19680606 000000   12.   270.  0.
   'CUR' 19680606 000000    2.    90.  0.
   'STP'
