$ WAVEWATCH III shell input file
$ ------------------------------
   F T
   F T
   F T
   F
   F
   F
   F
$
   19680606 000000
   19680606 060000
$  19680606 020000
$  19680607 000000
$  19680608 000000
$
   1
$
   19680606 000000   3600  19680607 000000
     F F F F F   T F F F F  F T F F F  F F F F F  F F F F F  F F F F F F
   19680606 000000      0  19680608 000000
   19680606 000000      0  19680608 000000
   19680606 000000      0  19680608 000000
   19680606 000000      0  19680608 000000
   19680606 000000      0  19680608 000000
