$ WAVEWATCH III Initial conditions input file
$ -------------------------------------------
  1
$  0.040469  0.0001 270. 200   0.E3  -15.E3   0.E3  15.E3  2.501
$  0.040469  0.0001 225. 200   0.E3  -15.E3   0.E3  15.E3  2.501
$  0.040469  0.0001 225.   2   0.E3  -15.E3   0.E3  15.E3  2.501
$  0.040469  0.0001 225. 200   0.E3 -999.E3   0.E3  15.E3  2.501
$  fp        sip    thm  ncos   xm   six      ym    siy    hmax
   0.040469  0.0001 225. 200   0.E3 -999.E3   0.E3 999.E3  2.501
$  0.040469  0.0001 225.   2   0.E3 -999.E3   0.E3 999.E3  2.501
$  0.040469  0.0001 180. 200   0.E3  -15.E3   0.E3  15.E3  2.501
