$ WAVEWATCH III Initial conditions input file
$ -------------------------------------------
  1
$  fp        sip    thm  ncos   xm    six      ym     siy     hmax
$  0.040469  0.0001 210. 200   0.E3   999.E3   0.E3  999.E3   2.501
   0.040469  0.0001 210. 200   0.E3 100.0E+3   0.E3 100.0E+3  2.501
$  0.040469  0.0001 210. 200 4.5E+6 100.0E+3 4.5E+6 100.0E+3  2.501
