$ WAVEWATCH III Grid output post-processing
$ -----------------------------------------
  19680606 000000 1080. 17
$
  F F F F F  T F F F F  F F F F F  F F F F F  F F F F F  F F F F F F
$
  1 0
$
  1 43 1 1 43 1 T F F
