$WAVEWATCH III LOCAL OBSTRUCTIONS
9
$ ilon ilat of the cell. lon: 8.2, 30.8
6   3
$ sizes of the cell in km
    76.473       85.960       98.856      117.309      106.573       97.961       88.956       97.961      106.573      117.309       98.856       85.960       76.473       85.960       98.856      117.309      106.573       97.961       88.956       97.961      106.573      117.309       98.856       85.960
$ mean alpha: 0.59375
$ mean beta: 0.724733980879
$alpha by ik, ith
0.50  0.50  0.50  0.50  0.63  0.75  0.88  0.75  0.62  0.50  0.50  0.50  0.50  0.50  0.50  0.50  0.63  0.75  0.88  0.75  0.63  0.50  0.50  0.50
0.50  0.50  0.50  0.50  0.63  0.75  0.88  0.75  0.62  0.50  0.50  0.50  0.50  0.50  0.50  0.50  0.63  0.75  0.88  0.75  0.63  0.50  0.50  0.50
0.50  0.50  0.50  0.50  0.63  0.75  0.88  0.75  0.62  0.50  0.50  0.50  0.50  0.50  0.50  0.50  0.63  0.75  0.88  0.75  0.63  0.50  0.50  0.50
0.50  0.50  0.50  0.50  0.63  0.75  0.88  0.75  0.62  0.50  0.50  0.50  0.50  0.50  0.50  0.50  0.63  0.75  0.88  0.75  0.63  0.50  0.50  0.50
0.50  0.50  0.50  0.50  0.63  0.75  0.88  0.75  0.62  0.50  0.50  0.50  0.50  0.50  0.50  0.50  0.63  0.75  0.88  0.75  0.63  0.50  0.50  0.50
0.50  0.50  0.50  0.50  0.63  0.75  0.88  0.75  0.62  0.50  0.50  0.50  0.50  0.50  0.50  0.50  0.63  0.75  0.88  0.75  0.63  0.50  0.50  0.50
0.50  0.50  0.50  0.50  0.63  0.75  0.88  0.75  0.62  0.50  0.50  0.50  0.50  0.50  0.50  0.50  0.63  0.75  0.88  0.75  0.63  0.50  0.50  0.50
0.50  0.50  0.50  0.50  0.63  0.75  0.88  0.75  0.62  0.50  0.50  0.50  0.50  0.50  0.50  0.50  0.63  0.75  0.88  0.75  0.63  0.50  0.50  0.50
0.50  0.50  0.50  0.50  0.63  0.75  0.88  0.75  0.62  0.50  0.50  0.50  0.50  0.50  0.50  0.50  0.63  0.75  0.88  0.75  0.63  0.50  0.50  0.50
0.50  0.50  0.50  0.50  0.63  0.75  0.88  0.75  0.62  0.50  0.50  0.50  0.50  0.50  0.50  0.50  0.63  0.75  0.88  0.75  0.63  0.50  0.50  0.50
0.50  0.50  0.50  0.50  0.63  0.75  0.88  0.75  0.62  0.50  0.50  0.50  0.50  0.50  0.50  0.50  0.63  0.75  0.88  0.75  0.63  0.50  0.50  0.50
0.50  0.50  0.50  0.50  0.63  0.75  0.88  0.75  0.62  0.50  0.50  0.50  0.50  0.50  0.50  0.50  0.63  0.75  0.88  0.75  0.63  0.50  0.50  0.50
0.50  0.50  0.50  0.50  0.63  0.75  0.88  0.75  0.62  0.50  0.50  0.50  0.50  0.50  0.50  0.50  0.63  0.75  0.88  0.75  0.63  0.50  0.50  0.50
0.50  0.50  0.50  0.50  0.63  0.75  0.88  0.75  0.62  0.50  0.50  0.50  0.50  0.50  0.50  0.50  0.63  0.75  0.88  0.75  0.63  0.50  0.50  0.50
0.50  0.50  0.50  0.50  0.63  0.75  0.88  0.75  0.62  0.50  0.50  0.50  0.50  0.50  0.50  0.50  0.63  0.75  0.88  0.75  0.63  0.50  0.50  0.50
0.50  0.50  0.50  0.50  0.63  0.75  0.88  0.75  0.62  0.50  0.50  0.50  0.50  0.50  0.50  0.50  0.63  0.75  0.88  0.75  0.63  0.50  0.50  0.50
0.50  0.50  0.50  0.50  0.63  0.75  0.88  0.75  0.62  0.50  0.50  0.50  0.50  0.50  0.50  0.50  0.63  0.75  0.88  0.75  0.63  0.50  0.50  0.50
0.50  0.50  0.50  0.50  0.63  0.75  0.88  0.75  0.62  0.50  0.50  0.50  0.50  0.50  0.50  0.50  0.63  0.75  0.88  0.75  0.63  0.50  0.50  0.50
0.50  0.50  0.50  0.50  0.63  0.75  0.88  0.75  0.62  0.50  0.50  0.50  0.50  0.50  0.50  0.50  0.63  0.75  0.88  0.75  0.63  0.50  0.50  0.50
0.50  0.50  0.50  0.50  0.63  0.75  0.88  0.75  0.62  0.50  0.50  0.50  0.50  0.50  0.50  0.50  0.63  0.75  0.88  0.75  0.63  0.50  0.50  0.50
0.50  0.50  0.50  0.50  0.63  0.75  0.88  0.75  0.62  0.50  0.50  0.50  0.50  0.50  0.50  0.50  0.63  0.75  0.88  0.75  0.63  0.50  0.50  0.50
0.50  0.50  0.50  0.50  0.63  0.75  0.88  0.75  0.62  0.50  0.50  0.50  0.50  0.50  0.50  0.50  0.63  0.75  0.88  0.75  0.63  0.50  0.50  0.50
0.50  0.50  0.50  0.50  0.63  0.75  0.88  0.75  0.62  0.50  0.50  0.50  0.50  0.50  0.50  0.50  0.63  0.75  0.88  0.75  0.63  0.50  0.50  0.50
0.50  0.50  0.50  0.50  0.63  0.75  0.88  0.75  0.62  0.50  0.50  0.50  0.50  0.50  0.50  0.50  0.63  0.75  0.88  0.75  0.63  0.50  0.50  0.50
0.50  0.50  0.50  0.50  0.63  0.75  0.88  0.75  0.62  0.50  0.50  0.50  0.50  0.50  0.50  0.50  0.63  0.75  0.88  0.75  0.63  0.50  0.50  0.50
$beta by ik, ith
0.50  0.50  0.50  0.50  0.63  0.75  0.88  0.84  0.80  0.76  0.82  0.88  0.94  0.89  0.85  0.80  0.83  0.86  0.89  0.77  0.65  0.53  0.52  0.51
0.50  0.50  0.50  0.50  0.63  0.75  0.88  0.84  0.80  0.76  0.82  0.88  0.94  0.89  0.85  0.80  0.83  0.86  0.89  0.77  0.65  0.53  0.52  0.51
0.50  0.50  0.50  0.50  0.63  0.75  0.88  0.84  0.80  0.76  0.82  0.88  0.94  0.89  0.85  0.80  0.83  0.86  0.89  0.77  0.65  0.53  0.52  0.51
0.50  0.50  0.50  0.50  0.63  0.75  0.88  0.84  0.80  0.76  0.82  0.88  0.94  0.89  0.85  0.80  0.83  0.86  0.89  0.77  0.65  0.53  0.52  0.51
0.50  0.50  0.50  0.50  0.63  0.75  0.88  0.84  0.80  0.76  0.82  0.88  0.94  0.89  0.85  0.80  0.83  0.86  0.89  0.77  0.65  0.53  0.52  0.51
0.50  0.50  0.50  0.50  0.63  0.75  0.88  0.84  0.80  0.76  0.82  0.88  0.94  0.89  0.85  0.80  0.83  0.86  0.89  0.77  0.65  0.53  0.52  0.51
0.50  0.50  0.50  0.50  0.63  0.75  0.88  0.84  0.80  0.76  0.82  0.88  0.94  0.89  0.85  0.80  0.83  0.86  0.89  0.77  0.65  0.53  0.52  0.51
0.50  0.50  0.50  0.50  0.63  0.75  0.88  0.84  0.80  0.76  0.82  0.88  0.94  0.89  0.85  0.80  0.83  0.86  0.89  0.77  0.65  0.53  0.52  0.51
0.50  0.50  0.50  0.50  0.63  0.75  0.88  0.84  0.80  0.76  0.82  0.88  0.94  0.89  0.85  0.80  0.83  0.86  0.89  0.77  0.65  0.53  0.52  0.51
0.50  0.50  0.50  0.50  0.63  0.75  0.88  0.84  0.80  0.76  0.82  0.88  0.94  0.89  0.85  0.80  0.83  0.86  0.89  0.77  0.65  0.53  0.52  0.51
0.50  0.50  0.50  0.50  0.63  0.75  0.88  0.84  0.80  0.76  0.82  0.88  0.94  0.89  0.85  0.80  0.83  0.86  0.89  0.77  0.65  0.53  0.52  0.51
0.50  0.50  0.50  0.50  0.63  0.75  0.88  0.84  0.80  0.76  0.82  0.88  0.94  0.89  0.85  0.80  0.83  0.86  0.89  0.77  0.65  0.53  0.52  0.51
0.50  0.50  0.50  0.50  0.63  0.75  0.88  0.84  0.80  0.76  0.82  0.88  0.94  0.89  0.85  0.80  0.83  0.86  0.89  0.77  0.65  0.53  0.52  0.51
0.50  0.50  0.50  0.50  0.63  0.75  0.88  0.84  0.80  0.76  0.82  0.88  0.94  0.89  0.85  0.80  0.83  0.86  0.89  0.77  0.65  0.53  0.52  0.51
0.50  0.50  0.50  0.50  0.63  0.75  0.88  0.84  0.80  0.76  0.82  0.88  0.94  0.89  0.85  0.80  0.83  0.86  0.89  0.77  0.65  0.53  0.52  0.51
0.50  0.50  0.50  0.50  0.63  0.75  0.88  0.84  0.80  0.76  0.82  0.88  0.94  0.89  0.85  0.80  0.83  0.86  0.89  0.77  0.65  0.53  0.52  0.51
0.50  0.50  0.50  0.50  0.63  0.75  0.88  0.84  0.80  0.76  0.82  0.88  0.94  0.89  0.85  0.80  0.83  0.86  0.89  0.77  0.65  0.53  0.52  0.51
0.50  0.50  0.50  0.50  0.63  0.75  0.88  0.84  0.80  0.76  0.82  0.88  0.94  0.89  0.85  0.80  0.83  0.86  0.89  0.77  0.65  0.53  0.52  0.51
0.50  0.50  0.50  0.50  0.63  0.75  0.88  0.84  0.80  0.76  0.82  0.88  0.94  0.89  0.85  0.80  0.83  0.86  0.89  0.77  0.65  0.53  0.52  0.51
0.50  0.50  0.50  0.50  0.63  0.75  0.88  0.84  0.80  0.76  0.82  0.88  0.94  0.89  0.85  0.80  0.83  0.86  0.89  0.77  0.65  0.53  0.52  0.51
0.50  0.50  0.50  0.50  0.63  0.75  0.88  0.84  0.80  0.76  0.82  0.88  0.94  0.89  0.85  0.80  0.83  0.86  0.89  0.77  0.65  0.53  0.52  0.51
0.50  0.50  0.50  0.50  0.63  0.75  0.88  0.84  0.80  0.76  0.82  0.88  0.94  0.89  0.85  0.80  0.83  0.86  0.89  0.77  0.65  0.53  0.52  0.51
0.50  0.50  0.50  0.50  0.63  0.75  0.88  0.84  0.80  0.76  0.82  0.88  0.94  0.89  0.85  0.80  0.83  0.86  0.89  0.77  0.65  0.53  0.52  0.51
0.50  0.50  0.50  0.50  0.63  0.75  0.88  0.84  0.80  0.76  0.82  0.88  0.94  0.89  0.85  0.80  0.83  0.86  0.89  0.77  0.65  0.53  0.52  0.51
0.50  0.50  0.50  0.50  0.63  0.75  0.88  0.84  0.80  0.76  0.82  0.88  0.94  0.89  0.85  0.80  0.83  0.86  0.89  0.77  0.65  0.53  0.52  0.51
$ ilon ilat of the cell. lon: 8.2, 31.6
6   4
$ sizes of the cell in km
    75.831       85.302       98.284      116.891      106.397       97.920       88.956       97.920      106.397      116.891       98.284       85.302       75.831       85.302       98.284      116.891      106.397       97.920       88.956       97.920      106.397      116.891       98.284       85.302
$ mean alpha: 0.59375
$ mean beta: 0.724733980879
$alpha by ik, ith
0.50  0.50  0.50  0.50  0.63  0.75  0.88  0.75  0.62  0.50  0.50  0.50  0.50  0.50  0.50  0.50  0.63  0.75  0.88  0.75  0.63  0.50  0.50  0.50
0.50  0.50  0.50  0.50  0.63  0.75  0.88  0.75  0.62  0.50  0.50  0.50  0.50  0.50  0.50  0.50  0.63  0.75  0.88  0.75  0.63  0.50  0.50  0.50
0.50  0.50  0.50  0.50  0.63  0.75  0.88  0.75  0.62  0.50  0.50  0.50  0.50  0.50  0.50  0.50  0.63  0.75  0.88  0.75  0.63  0.50  0.50  0.50
0.50  0.50  0.50  0.50  0.63  0.75  0.88  0.75  0.62  0.50  0.50  0.50  0.50  0.50  0.50  0.50  0.63  0.75  0.88  0.75  0.63  0.50  0.50  0.50
0.50  0.50  0.50  0.50  0.63  0.75  0.88  0.75  0.62  0.50  0.50  0.50  0.50  0.50  0.50  0.50  0.63  0.75  0.88  0.75  0.63  0.50  0.50  0.50
0.50  0.50  0.50  0.50  0.63  0.75  0.88  0.75  0.62  0.50  0.50  0.50  0.50  0.50  0.50  0.50  0.63  0.75  0.88  0.75  0.63  0.50  0.50  0.50
0.50  0.50  0.50  0.50  0.63  0.75  0.88  0.75  0.62  0.50  0.50  0.50  0.50  0.50  0.50  0.50  0.63  0.75  0.88  0.75  0.63  0.50  0.50  0.50
0.50  0.50  0.50  0.50  0.63  0.75  0.88  0.75  0.62  0.50  0.50  0.50  0.50  0.50  0.50  0.50  0.63  0.75  0.88  0.75  0.63  0.50  0.50  0.50
0.50  0.50  0.50  0.50  0.63  0.75  0.88  0.75  0.62  0.50  0.50  0.50  0.50  0.50  0.50  0.50  0.63  0.75  0.88  0.75  0.63  0.50  0.50  0.50
0.50  0.50  0.50  0.50  0.63  0.75  0.88  0.75  0.62  0.50  0.50  0.50  0.50  0.50  0.50  0.50  0.63  0.75  0.88  0.75  0.63  0.50  0.50  0.50
0.50  0.50  0.50  0.50  0.63  0.75  0.88  0.75  0.62  0.50  0.50  0.50  0.50  0.50  0.50  0.50  0.63  0.75  0.88  0.75  0.63  0.50  0.50  0.50
0.50  0.50  0.50  0.50  0.63  0.75  0.88  0.75  0.62  0.50  0.50  0.50  0.50  0.50  0.50  0.50  0.63  0.75  0.88  0.75  0.63  0.50  0.50  0.50
0.50  0.50  0.50  0.50  0.63  0.75  0.88  0.75  0.62  0.50  0.50  0.50  0.50  0.50  0.50  0.50  0.63  0.75  0.88  0.75  0.63  0.50  0.50  0.50
0.50  0.50  0.50  0.50  0.63  0.75  0.88  0.75  0.62  0.50  0.50  0.50  0.50  0.50  0.50  0.50  0.63  0.75  0.88  0.75  0.63  0.50  0.50  0.50
0.50  0.50  0.50  0.50  0.63  0.75  0.88  0.75  0.62  0.50  0.50  0.50  0.50  0.50  0.50  0.50  0.63  0.75  0.88  0.75  0.63  0.50  0.50  0.50
0.50  0.50  0.50  0.50  0.63  0.75  0.88  0.75  0.62  0.50  0.50  0.50  0.50  0.50  0.50  0.50  0.63  0.75  0.88  0.75  0.63  0.50  0.50  0.50
0.50  0.50  0.50  0.50  0.63  0.75  0.88  0.75  0.62  0.50  0.50  0.50  0.50  0.50  0.50  0.50  0.63  0.75  0.88  0.75  0.63  0.50  0.50  0.50
0.50  0.50  0.50  0.50  0.63  0.75  0.88  0.75  0.62  0.50  0.50  0.50  0.50  0.50  0.50  0.50  0.63  0.75  0.88  0.75  0.63  0.50  0.50  0.50
0.50  0.50  0.50  0.50  0.63  0.75  0.88  0.75  0.62  0.50  0.50  0.50  0.50  0.50  0.50  0.50  0.63  0.75  0.88  0.75  0.63  0.50  0.50  0.50
0.50  0.50  0.50  0.50  0.63  0.75  0.88  0.75  0.62  0.50  0.50  0.50  0.50  0.50  0.50  0.50  0.63  0.75  0.88  0.75  0.63  0.50  0.50  0.50
0.50  0.50  0.50  0.50  0.63  0.75  0.88  0.75  0.62  0.50  0.50  0.50  0.50  0.50  0.50  0.50  0.63  0.75  0.88  0.75  0.63  0.50  0.50  0.50
0.50  0.50  0.50  0.50  0.63  0.75  0.88  0.75  0.62  0.50  0.50  0.50  0.50  0.50  0.50  0.50  0.63  0.75  0.88  0.75  0.63  0.50  0.50  0.50
0.50  0.50  0.50  0.50  0.63  0.75  0.88  0.75  0.62  0.50  0.50  0.50  0.50  0.50  0.50  0.50  0.63  0.75  0.88  0.75  0.63  0.50  0.50  0.50
0.50  0.50  0.50  0.50  0.63  0.75  0.88  0.75  0.62  0.50  0.50  0.50  0.50  0.50  0.50  0.50  0.63  0.75  0.88  0.75  0.63  0.50  0.50  0.50
0.50  0.50  0.50  0.50  0.63  0.75  0.88  0.75  0.62  0.50  0.50  0.50  0.50  0.50  0.50  0.50  0.63  0.75  0.88  0.75  0.63  0.50  0.50  0.50
$beta by ik, ith
0.50  0.50  0.50  0.50  0.63  0.75  0.88  0.84  0.80  0.76  0.82  0.88  0.94  0.89  0.85  0.80  0.83  0.86  0.89  0.77  0.65  0.53  0.52  0.51
0.50  0.50  0.50  0.50  0.63  0.75  0.88  0.84  0.80  0.76  0.82  0.88  0.94  0.89  0.85  0.80  0.83  0.86  0.89  0.77  0.65  0.53  0.52  0.51
0.50  0.50  0.50  0.50  0.63  0.75  0.88  0.84  0.80  0.76  0.82  0.88  0.94  0.89  0.85  0.80  0.83  0.86  0.89  0.77  0.65  0.53  0.52  0.51
0.50  0.50  0.50  0.50  0.63  0.75  0.88  0.84  0.80  0.76  0.82  0.88  0.94  0.89  0.85  0.80  0.83  0.86  0.89  0.77  0.65  0.53  0.52  0.51
0.50  0.50  0.50  0.50  0.63  0.75  0.88  0.84  0.80  0.76  0.82  0.88  0.94  0.89  0.85  0.80  0.83  0.86  0.89  0.77  0.65  0.53  0.52  0.51
0.50  0.50  0.50  0.50  0.63  0.75  0.88  0.84  0.80  0.76  0.82  0.88  0.94  0.89  0.85  0.80  0.83  0.86  0.89  0.77  0.65  0.53  0.52  0.51
0.50  0.50  0.50  0.50  0.63  0.75  0.88  0.84  0.80  0.76  0.82  0.88  0.94  0.89  0.85  0.80  0.83  0.86  0.89  0.77  0.65  0.53  0.52  0.51
0.50  0.50  0.50  0.50  0.63  0.75  0.88  0.84  0.80  0.76  0.82  0.88  0.94  0.89  0.85  0.80  0.83  0.86  0.89  0.77  0.65  0.53  0.52  0.51
0.50  0.50  0.50  0.50  0.63  0.75  0.88  0.84  0.80  0.76  0.82  0.88  0.94  0.89  0.85  0.80  0.83  0.86  0.89  0.77  0.65  0.53  0.52  0.51
0.50  0.50  0.50  0.50  0.63  0.75  0.88  0.84  0.80  0.76  0.82  0.88  0.94  0.89  0.85  0.80  0.83  0.86  0.89  0.77  0.65  0.53  0.52  0.51
0.50  0.50  0.50  0.50  0.63  0.75  0.88  0.84  0.80  0.76  0.82  0.88  0.94  0.89  0.85  0.80  0.83  0.86  0.89  0.77  0.65  0.53  0.52  0.51
0.50  0.50  0.50  0.50  0.63  0.75  0.88  0.84  0.80  0.76  0.82  0.88  0.94  0.89  0.85  0.80  0.83  0.86  0.89  0.77  0.65  0.53  0.52  0.51
0.50  0.50  0.50  0.50  0.63  0.75  0.88  0.84  0.80  0.76  0.82  0.88  0.94  0.89  0.85  0.80  0.83  0.86  0.89  0.77  0.65  0.53  0.52  0.51
0.50  0.50  0.50  0.50  0.63  0.75  0.88  0.84  0.80  0.76  0.82  0.88  0.94  0.89  0.85  0.80  0.83  0.86  0.89  0.77  0.65  0.53  0.52  0.51
0.50  0.50  0.50  0.50  0.63  0.75  0.88  0.84  0.80  0.76  0.82  0.88  0.94  0.89  0.85  0.80  0.83  0.86  0.89  0.77  0.65  0.53  0.52  0.51
0.50  0.50  0.50  0.50  0.63  0.75  0.88  0.84  0.80  0.76  0.82  0.88  0.94  0.89  0.85  0.80  0.83  0.86  0.89  0.77  0.65  0.53  0.52  0.51
0.50  0.50  0.50  0.50  0.63  0.75  0.88  0.84  0.80  0.76  0.82  0.88  0.94  0.89  0.85  0.80  0.83  0.86  0.89  0.77  0.65  0.53  0.52  0.51
0.50  0.50  0.50  0.50  0.63  0.75  0.88  0.84  0.80  0.76  0.82  0.88  0.94  0.89  0.85  0.80  0.83  0.86  0.89  0.77  0.65  0.53  0.52  0.51
0.50  0.50  0.50  0.50  0.63  0.75  0.88  0.84  0.80  0.76  0.82  0.88  0.94  0.89  0.85  0.80  0.83  0.86  0.89  0.77  0.65  0.53  0.52  0.51
0.50  0.50  0.50  0.50  0.63  0.75  0.88  0.84  0.80  0.76  0.82  0.88  0.94  0.89  0.85  0.80  0.83  0.86  0.89  0.77  0.65  0.53  0.52  0.51
0.50  0.50  0.50  0.50  0.63  0.75  0.88  0.84  0.80  0.76  0.82  0.88  0.94  0.89  0.85  0.80  0.83  0.86  0.89  0.77  0.65  0.53  0.52  0.51
0.50  0.50  0.50  0.50  0.63  0.75  0.88  0.84  0.80  0.76  0.82  0.88  0.94  0.89  0.85  0.80  0.83  0.86  0.89  0.77  0.65  0.53  0.52  0.51
0.50  0.50  0.50  0.50  0.63  0.75  0.88  0.84  0.80  0.76  0.82  0.88  0.94  0.89  0.85  0.80  0.83  0.86  0.89  0.77  0.65  0.53  0.52  0.51
0.50  0.50  0.50  0.50  0.63  0.75  0.88  0.84  0.80  0.76  0.82  0.88  0.94  0.89  0.85  0.80  0.83  0.86  0.89  0.77  0.65  0.53  0.52  0.51
0.50  0.50  0.50  0.50  0.63  0.75  0.88  0.84  0.80  0.76  0.82  0.88  0.94  0.89  0.85  0.80  0.83  0.86  0.89  0.77  0.65  0.53  0.52  0.51
$ ilon ilat of the cell. lon: 8.2, 32.4
6   5
$ sizes of the cell in km
    75.174       84.630       97.702      116.466      106.218       97.878       88.956       97.878      106.218      116.466       97.702       84.630       75.174       84.630       97.702      116.466      106.218       97.878       88.956       97.878      106.218      116.466       97.702       84.630
$ mean alpha: 0.59375
$ mean beta: 0.724733980879
$alpha by ik, ith
0.50  0.50  0.50  0.50  0.63  0.75  0.88  0.75  0.62  0.50  0.50  0.50  0.50  0.50  0.50  0.50  0.62  0.75  0.88  0.75  0.63  0.50  0.50  0.50
0.50  0.50  0.50  0.50  0.63  0.75  0.88  0.75  0.62  0.50  0.50  0.50  0.50  0.50  0.50  0.50  0.62  0.75  0.88  0.75  0.63  0.50  0.50  0.50
0.50  0.50  0.50  0.50  0.63  0.75  0.88  0.75  0.62  0.50  0.50  0.50  0.50  0.50  0.50  0.50  0.62  0.75  0.88  0.75  0.63  0.50  0.50  0.50
0.50  0.50  0.50  0.50  0.63  0.75  0.88  0.75  0.62  0.50  0.50  0.50  0.50  0.50  0.50  0.50  0.62  0.75  0.88  0.75  0.63  0.50  0.50  0.50
0.50  0.50  0.50  0.50  0.63  0.75  0.88  0.75  0.62  0.50  0.50  0.50  0.50  0.50  0.50  0.50  0.62  0.75  0.88  0.75  0.63  0.50  0.50  0.50
0.50  0.50  0.50  0.50  0.63  0.75  0.88  0.75  0.62  0.50  0.50  0.50  0.50  0.50  0.50  0.50  0.62  0.75  0.88  0.75  0.63  0.50  0.50  0.50
0.50  0.50  0.50  0.50  0.63  0.75  0.88  0.75  0.62  0.50  0.50  0.50  0.50  0.50  0.50  0.50  0.62  0.75  0.88  0.75  0.63  0.50  0.50  0.50
0.50  0.50  0.50  0.50  0.63  0.75  0.88  0.75  0.62  0.50  0.50  0.50  0.50  0.50  0.50  0.50  0.62  0.75  0.88  0.75  0.63  0.50  0.50  0.50
0.50  0.50  0.50  0.50  0.63  0.75  0.88  0.75  0.62  0.50  0.50  0.50  0.50  0.50  0.50  0.50  0.62  0.75  0.88  0.75  0.63  0.50  0.50  0.50
0.50  0.50  0.50  0.50  0.63  0.75  0.88  0.75  0.62  0.50  0.50  0.50  0.50  0.50  0.50  0.50  0.62  0.75  0.88  0.75  0.63  0.50  0.50  0.50
0.50  0.50  0.50  0.50  0.63  0.75  0.88  0.75  0.62  0.50  0.50  0.50  0.50  0.50  0.50  0.50  0.62  0.75  0.88  0.75  0.63  0.50  0.50  0.50
0.50  0.50  0.50  0.50  0.63  0.75  0.88  0.75  0.62  0.50  0.50  0.50  0.50  0.50  0.50  0.50  0.62  0.75  0.88  0.75  0.63  0.50  0.50  0.50
0.50  0.50  0.50  0.50  0.63  0.75  0.88  0.75  0.62  0.50  0.50  0.50  0.50  0.50  0.50  0.50  0.62  0.75  0.88  0.75  0.63  0.50  0.50  0.50
0.50  0.50  0.50  0.50  0.63  0.75  0.88  0.75  0.62  0.50  0.50  0.50  0.50  0.50  0.50  0.50  0.62  0.75  0.88  0.75  0.63  0.50  0.50  0.50
0.50  0.50  0.50  0.50  0.63  0.75  0.88  0.75  0.62  0.50  0.50  0.50  0.50  0.50  0.50  0.50  0.62  0.75  0.88  0.75  0.63  0.50  0.50  0.50
0.50  0.50  0.50  0.50  0.63  0.75  0.88  0.75  0.62  0.50  0.50  0.50  0.50  0.50  0.50  0.50  0.62  0.75  0.88  0.75  0.63  0.50  0.50  0.50
0.50  0.50  0.50  0.50  0.63  0.75  0.88  0.75  0.62  0.50  0.50  0.50  0.50  0.50  0.50  0.50  0.62  0.75  0.88  0.75  0.63  0.50  0.50  0.50
0.50  0.50  0.50  0.50  0.63  0.75  0.88  0.75  0.62  0.50  0.50  0.50  0.50  0.50  0.50  0.50  0.62  0.75  0.88  0.75  0.63  0.50  0.50  0.50
0.50  0.50  0.50  0.50  0.63  0.75  0.88  0.75  0.62  0.50  0.50  0.50  0.50  0.50  0.50  0.50  0.62  0.75  0.88  0.75  0.63  0.50  0.50  0.50
0.50  0.50  0.50  0.50  0.63  0.75  0.88  0.75  0.62  0.50  0.50  0.50  0.50  0.50  0.50  0.50  0.62  0.75  0.88  0.75  0.63  0.50  0.50  0.50
0.50  0.50  0.50  0.50  0.63  0.75  0.88  0.75  0.62  0.50  0.50  0.50  0.50  0.50  0.50  0.50  0.62  0.75  0.88  0.75  0.63  0.50  0.50  0.50
0.50  0.50  0.50  0.50  0.63  0.75  0.88  0.75  0.62  0.50  0.50  0.50  0.50  0.50  0.50  0.50  0.62  0.75  0.88  0.75  0.63  0.50  0.50  0.50
0.50  0.50  0.50  0.50  0.63  0.75  0.88  0.75  0.62  0.50  0.50  0.50  0.50  0.50  0.50  0.50  0.62  0.75  0.88  0.75  0.63  0.50  0.50  0.50
0.50  0.50  0.50  0.50  0.63  0.75  0.88  0.75  0.62  0.50  0.50  0.50  0.50  0.50  0.50  0.50  0.62  0.75  0.88  0.75  0.63  0.50  0.50  0.50
0.50  0.50  0.50  0.50  0.63  0.75  0.88  0.75  0.62  0.50  0.50  0.50  0.50  0.50  0.50  0.50  0.62  0.75  0.88  0.75  0.63  0.50  0.50  0.50
$beta by ik, ith
0.50  0.50  0.50  0.50  0.62  0.75  0.88  0.84  0.80  0.76  0.82  0.88  0.94  0.89  0.85  0.80  0.83  0.86  0.89  0.77  0.65  0.53  0.52  0.51
0.50  0.50  0.50  0.50  0.62  0.75  0.88  0.84  0.80  0.76  0.82  0.88  0.94  0.89  0.85  0.80  0.83  0.86  0.89  0.77  0.65  0.53  0.52  0.51
0.50  0.50  0.50  0.50  0.62  0.75  0.88  0.84  0.80  0.76  0.82  0.88  0.94  0.89  0.85  0.80  0.83  0.86  0.89  0.77  0.65  0.53  0.52  0.51
0.50  0.50  0.50  0.50  0.62  0.75  0.88  0.84  0.80  0.76  0.82  0.88  0.94  0.89  0.85  0.80  0.83  0.86  0.89  0.77  0.65  0.53  0.52  0.51
0.50  0.50  0.50  0.50  0.62  0.75  0.88  0.84  0.80  0.76  0.82  0.88  0.94  0.89  0.85  0.80  0.83  0.86  0.89  0.77  0.65  0.53  0.52  0.51
0.50  0.50  0.50  0.50  0.62  0.75  0.88  0.84  0.80  0.76  0.82  0.88  0.94  0.89  0.85  0.80  0.83  0.86  0.89  0.77  0.65  0.53  0.52  0.51
0.50  0.50  0.50  0.50  0.62  0.75  0.88  0.84  0.80  0.76  0.82  0.88  0.94  0.89  0.85  0.80  0.83  0.86  0.89  0.77  0.65  0.53  0.52  0.51
0.50  0.50  0.50  0.50  0.62  0.75  0.88  0.84  0.80  0.76  0.82  0.88  0.94  0.89  0.85  0.80  0.83  0.86  0.89  0.77  0.65  0.53  0.52  0.51
0.50  0.50  0.50  0.50  0.62  0.75  0.88  0.84  0.80  0.76  0.82  0.88  0.94  0.89  0.85  0.80  0.83  0.86  0.89  0.77  0.65  0.53  0.52  0.51
0.50  0.50  0.50  0.50  0.62  0.75  0.88  0.84  0.80  0.76  0.82  0.88  0.94  0.89  0.85  0.80  0.83  0.86  0.89  0.77  0.65  0.53  0.52  0.51
0.50  0.50  0.50  0.50  0.62  0.75  0.88  0.84  0.80  0.76  0.82  0.88  0.94  0.89  0.85  0.80  0.83  0.86  0.89  0.77  0.65  0.53  0.52  0.51
0.50  0.50  0.50  0.50  0.62  0.75  0.88  0.84  0.80  0.76  0.82  0.88  0.94  0.89  0.85  0.80  0.83  0.86  0.89  0.77  0.65  0.53  0.52  0.51
0.50  0.50  0.50  0.50  0.62  0.75  0.88  0.84  0.80  0.76  0.82  0.88  0.94  0.89  0.85  0.80  0.83  0.86  0.89  0.77  0.65  0.53  0.52  0.51
0.50  0.50  0.50  0.50  0.62  0.75  0.88  0.84  0.80  0.76  0.82  0.88  0.94  0.89  0.85  0.80  0.83  0.86  0.89  0.77  0.65  0.53  0.52  0.51
0.50  0.50  0.50  0.50  0.62  0.75  0.88  0.84  0.80  0.76  0.82  0.88  0.94  0.89  0.85  0.80  0.83  0.86  0.89  0.77  0.65  0.53  0.52  0.51
0.50  0.50  0.50  0.50  0.62  0.75  0.88  0.84  0.80  0.76  0.82  0.88  0.94  0.89  0.85  0.80  0.83  0.86  0.89  0.77  0.65  0.53  0.52  0.51
0.50  0.50  0.50  0.50  0.62  0.75  0.88  0.84  0.80  0.76  0.82  0.88  0.94  0.89  0.85  0.80  0.83  0.86  0.89  0.77  0.65  0.53  0.52  0.51
0.50  0.50  0.50  0.50  0.62  0.75  0.88  0.84  0.80  0.76  0.82  0.88  0.94  0.89  0.85  0.80  0.83  0.86  0.89  0.77  0.65  0.53  0.52  0.51
0.50  0.50  0.50  0.50  0.62  0.75  0.88  0.84  0.80  0.76  0.82  0.88  0.94  0.89  0.85  0.80  0.83  0.86  0.89  0.77  0.65  0.53  0.52  0.51
0.50  0.50  0.50  0.50  0.62  0.75  0.88  0.84  0.80  0.76  0.82  0.88  0.94  0.89  0.85  0.80  0.83  0.86  0.89  0.77  0.65  0.53  0.52  0.51
0.50  0.50  0.50  0.50  0.62  0.75  0.88  0.84  0.80  0.76  0.82  0.88  0.94  0.89  0.85  0.80  0.83  0.86  0.89  0.77  0.65  0.53  0.52  0.51
0.50  0.50  0.50  0.50  0.62  0.75  0.88  0.84  0.80  0.76  0.82  0.88  0.94  0.89  0.85  0.80  0.83  0.86  0.89  0.77  0.65  0.53  0.52  0.51
0.50  0.50  0.50  0.50  0.62  0.75  0.88  0.84  0.80  0.76  0.82  0.88  0.94  0.89  0.85  0.80  0.83  0.86  0.89  0.77  0.65  0.53  0.52  0.51
0.50  0.50  0.50  0.50  0.62  0.75  0.88  0.84  0.80  0.76  0.82  0.88  0.94  0.89  0.85  0.80  0.83  0.86  0.89  0.77  0.65  0.53  0.52  0.51
0.50  0.50  0.50  0.50  0.62  0.75  0.88  0.84  0.80  0.76  0.82  0.88  0.94  0.89  0.85  0.80  0.83  0.86  0.89  0.77  0.65  0.53  0.52  0.51
$ ilon ilat of the cell. lon: 8.2, 33.2
6   6
$ sizes of the cell in km
    74.503       83.944       97.108      116.034      106.036       97.836       88.956       97.836      106.036      116.034       97.108       83.944       74.503       83.944       97.108      116.034      106.036       97.836       88.956       97.836      106.036      116.034       97.108       83.944
$ mean alpha: 0.59375
$ mean beta: 0.724733980879
$alpha by ik, ith
0.50  0.50  0.50  0.50  0.62  0.75  0.88  0.75  0.62  0.50  0.50  0.50  0.50  0.50  0.50  0.50  0.62  0.75  0.88  0.75  0.62  0.50  0.50  0.50
0.50  0.50  0.50  0.50  0.62  0.75  0.88  0.75  0.62  0.50  0.50  0.50  0.50  0.50  0.50  0.50  0.62  0.75  0.88  0.75  0.62  0.50  0.50  0.50
0.50  0.50  0.50  0.50  0.62  0.75  0.88  0.75  0.62  0.50  0.50  0.50  0.50  0.50  0.50  0.50  0.62  0.75  0.88  0.75  0.62  0.50  0.50  0.50
0.50  0.50  0.50  0.50  0.62  0.75  0.88  0.75  0.62  0.50  0.50  0.50  0.50  0.50  0.50  0.50  0.62  0.75  0.88  0.75  0.62  0.50  0.50  0.50
0.50  0.50  0.50  0.50  0.62  0.75  0.88  0.75  0.62  0.50  0.50  0.50  0.50  0.50  0.50  0.50  0.62  0.75  0.88  0.75  0.62  0.50  0.50  0.50
0.50  0.50  0.50  0.50  0.62  0.75  0.88  0.75  0.62  0.50  0.50  0.50  0.50  0.50  0.50  0.50  0.62  0.75  0.88  0.75  0.62  0.50  0.50  0.50
0.50  0.50  0.50  0.50  0.62  0.75  0.88  0.75  0.62  0.50  0.50  0.50  0.50  0.50  0.50  0.50  0.62  0.75  0.88  0.75  0.62  0.50  0.50  0.50
0.50  0.50  0.50  0.50  0.62  0.75  0.88  0.75  0.62  0.50  0.50  0.50  0.50  0.50  0.50  0.50  0.62  0.75  0.88  0.75  0.62  0.50  0.50  0.50
0.50  0.50  0.50  0.50  0.62  0.75  0.88  0.75  0.62  0.50  0.50  0.50  0.50  0.50  0.50  0.50  0.62  0.75  0.88  0.75  0.62  0.50  0.50  0.50
0.50  0.50  0.50  0.50  0.62  0.75  0.88  0.75  0.62  0.50  0.50  0.50  0.50  0.50  0.50  0.50  0.62  0.75  0.88  0.75  0.62  0.50  0.50  0.50
0.50  0.50  0.50  0.50  0.62  0.75  0.88  0.75  0.62  0.50  0.50  0.50  0.50  0.50  0.50  0.50  0.62  0.75  0.88  0.75  0.62  0.50  0.50  0.50
0.50  0.50  0.50  0.50  0.62  0.75  0.88  0.75  0.62  0.50  0.50  0.50  0.50  0.50  0.50  0.50  0.62  0.75  0.88  0.75  0.62  0.50  0.50  0.50
0.50  0.50  0.50  0.50  0.62  0.75  0.88  0.75  0.62  0.50  0.50  0.50  0.50  0.50  0.50  0.50  0.62  0.75  0.88  0.75  0.62  0.50  0.50  0.50
0.50  0.50  0.50  0.50  0.62  0.75  0.88  0.75  0.62  0.50  0.50  0.50  0.50  0.50  0.50  0.50  0.62  0.75  0.88  0.75  0.62  0.50  0.50  0.50
0.50  0.50  0.50  0.50  0.62  0.75  0.88  0.75  0.62  0.50  0.50  0.50  0.50  0.50  0.50  0.50  0.62  0.75  0.88  0.75  0.62  0.50  0.50  0.50
0.50  0.50  0.50  0.50  0.62  0.75  0.88  0.75  0.62  0.50  0.50  0.50  0.50  0.50  0.50  0.50  0.62  0.75  0.88  0.75  0.62  0.50  0.50  0.50
0.50  0.50  0.50  0.50  0.62  0.75  0.88  0.75  0.62  0.50  0.50  0.50  0.50  0.50  0.50  0.50  0.62  0.75  0.88  0.75  0.62  0.50  0.50  0.50
0.50  0.50  0.50  0.50  0.62  0.75  0.88  0.75  0.62  0.50  0.50  0.50  0.50  0.50  0.50  0.50  0.62  0.75  0.88  0.75  0.62  0.50  0.50  0.50
0.50  0.50  0.50  0.50  0.62  0.75  0.88  0.75  0.62  0.50  0.50  0.50  0.50  0.50  0.50  0.50  0.62  0.75  0.88  0.75  0.62  0.50  0.50  0.50
0.50  0.50  0.50  0.50  0.62  0.75  0.88  0.75  0.62  0.50  0.50  0.50  0.50  0.50  0.50  0.50  0.62  0.75  0.88  0.75  0.62  0.50  0.50  0.50
0.50  0.50  0.50  0.50  0.62  0.75  0.88  0.75  0.62  0.50  0.50  0.50  0.50  0.50  0.50  0.50  0.62  0.75  0.88  0.75  0.62  0.50  0.50  0.50
0.50  0.50  0.50  0.50  0.62  0.75  0.88  0.75  0.62  0.50  0.50  0.50  0.50  0.50  0.50  0.50  0.62  0.75  0.88  0.75  0.62  0.50  0.50  0.50
0.50  0.50  0.50  0.50  0.62  0.75  0.88  0.75  0.62  0.50  0.50  0.50  0.50  0.50  0.50  0.50  0.62  0.75  0.88  0.75  0.62  0.50  0.50  0.50
0.50  0.50  0.50  0.50  0.62  0.75  0.88  0.75  0.62  0.50  0.50  0.50  0.50  0.50  0.50  0.50  0.62  0.75  0.88  0.75  0.62  0.50  0.50  0.50
0.50  0.50  0.50  0.50  0.62  0.75  0.88  0.75  0.62  0.50  0.50  0.50  0.50  0.50  0.50  0.50  0.62  0.75  0.88  0.75  0.62  0.50  0.50  0.50
$beta by ik, ith
0.50  0.50  0.50  0.50  0.62  0.75  0.88  0.84  0.80  0.76  0.82  0.88  0.94  0.89  0.85  0.80  0.83  0.86  0.89  0.77  0.65  0.53  0.52  0.51
0.50  0.50  0.50  0.50  0.62  0.75  0.88  0.84  0.80  0.76  0.82  0.88  0.94  0.89  0.85  0.80  0.83  0.86  0.89  0.77  0.65  0.53  0.52  0.51
0.50  0.50  0.50  0.50  0.62  0.75  0.88  0.84  0.80  0.76  0.82  0.88  0.94  0.89  0.85  0.80  0.83  0.86  0.89  0.77  0.65  0.53  0.52  0.51
0.50  0.50  0.50  0.50  0.62  0.75  0.88  0.84  0.80  0.76  0.82  0.88  0.94  0.89  0.85  0.80  0.83  0.86  0.89  0.77  0.65  0.53  0.52  0.51
0.50  0.50  0.50  0.50  0.62  0.75  0.88  0.84  0.80  0.76  0.82  0.88  0.94  0.89  0.85  0.80  0.83  0.86  0.89  0.77  0.65  0.53  0.52  0.51
0.50  0.50  0.50  0.50  0.62  0.75  0.88  0.84  0.80  0.76  0.82  0.88  0.94  0.89  0.85  0.80  0.83  0.86  0.89  0.77  0.65  0.53  0.52  0.51
0.50  0.50  0.50  0.50  0.62  0.75  0.88  0.84  0.80  0.76  0.82  0.88  0.94  0.89  0.85  0.80  0.83  0.86  0.89  0.77  0.65  0.53  0.52  0.51
0.50  0.50  0.50  0.50  0.62  0.75  0.88  0.84  0.80  0.76  0.82  0.88  0.94  0.89  0.85  0.80  0.83  0.86  0.89  0.77  0.65  0.53  0.52  0.51
0.50  0.50  0.50  0.50  0.62  0.75  0.88  0.84  0.80  0.76  0.82  0.88  0.94  0.89  0.85  0.80  0.83  0.86  0.89  0.77  0.65  0.53  0.52  0.51
0.50  0.50  0.50  0.50  0.62  0.75  0.88  0.84  0.80  0.76  0.82  0.88  0.94  0.89  0.85  0.80  0.83  0.86  0.89  0.77  0.65  0.53  0.52  0.51
0.50  0.50  0.50  0.50  0.62  0.75  0.88  0.84  0.80  0.76  0.82  0.88  0.94  0.89  0.85  0.80  0.83  0.86  0.89  0.77  0.65  0.53  0.52  0.51
0.50  0.50  0.50  0.50  0.62  0.75  0.88  0.84  0.80  0.76  0.82  0.88  0.94  0.89  0.85  0.80  0.83  0.86  0.89  0.77  0.65  0.53  0.52  0.51
0.50  0.50  0.50  0.50  0.62  0.75  0.88  0.84  0.80  0.76  0.82  0.88  0.94  0.89  0.85  0.80  0.83  0.86  0.89  0.77  0.65  0.53  0.52  0.51
0.50  0.50  0.50  0.50  0.62  0.75  0.88  0.84  0.80  0.76  0.82  0.88  0.94  0.89  0.85  0.80  0.83  0.86  0.89  0.77  0.65  0.53  0.52  0.51
0.50  0.50  0.50  0.50  0.62  0.75  0.88  0.84  0.80  0.76  0.82  0.88  0.94  0.89  0.85  0.80  0.83  0.86  0.89  0.77  0.65  0.53  0.52  0.51
0.50  0.50  0.50  0.50  0.62  0.75  0.88  0.84  0.80  0.76  0.82  0.88  0.94  0.89  0.85  0.80  0.83  0.86  0.89  0.77  0.65  0.53  0.52  0.51
0.50  0.50  0.50  0.50  0.62  0.75  0.88  0.84  0.80  0.76  0.82  0.88  0.94  0.89  0.85  0.80  0.83  0.86  0.89  0.77  0.65  0.53  0.52  0.51
0.50  0.50  0.50  0.50  0.62  0.75  0.88  0.84  0.80  0.76  0.82  0.88  0.94  0.89  0.85  0.80  0.83  0.86  0.89  0.77  0.65  0.53  0.52  0.51
0.50  0.50  0.50  0.50  0.62  0.75  0.88  0.84  0.80  0.76  0.82  0.88  0.94  0.89  0.85  0.80  0.83  0.86  0.89  0.77  0.65  0.53  0.52  0.51
0.50  0.50  0.50  0.50  0.62  0.75  0.88  0.84  0.80  0.76  0.82  0.88  0.94  0.89  0.85  0.80  0.83  0.86  0.89  0.77  0.65  0.53  0.52  0.51
0.50  0.50  0.50  0.50  0.62  0.75  0.88  0.84  0.80  0.76  0.82  0.88  0.94  0.89  0.85  0.80  0.83  0.86  0.89  0.77  0.65  0.53  0.52  0.51
0.50  0.50  0.50  0.50  0.62  0.75  0.88  0.84  0.80  0.76  0.82  0.88  0.94  0.89  0.85  0.80  0.83  0.86  0.89  0.77  0.65  0.53  0.52  0.51
0.50  0.50  0.50  0.50  0.62  0.75  0.88  0.84  0.80  0.76  0.82  0.88  0.94  0.89  0.85  0.80  0.83  0.86  0.89  0.77  0.65  0.53  0.52  0.51
0.50  0.50  0.50  0.50  0.62  0.75  0.88  0.84  0.80  0.76  0.82  0.88  0.94  0.89  0.85  0.80  0.83  0.86  0.89  0.77  0.65  0.53  0.52  0.51
0.50  0.50  0.50  0.50  0.62  0.75  0.88  0.84  0.80  0.76  0.82  0.88  0.94  0.89  0.85  0.80  0.83  0.86  0.89  0.77  0.65  0.53  0.52  0.51
$ ilon ilat of the cell. lon: 8.2, 34.0
6   7
$ sizes of the cell in km
    73.817       83.243       96.503      115.595      105.852       97.793       88.956       97.793      105.852      115.595       96.503       83.243       73.817       83.243       96.503      115.595      105.852       97.793       88.956       97.793      105.852      115.595       96.503       83.243
$ mean alpha: 0.59375
$ mean beta: 0.724733980879
$alpha by ik, ith
0.50  0.50  0.50  0.50  0.63  0.75  0.88  0.75  0.62  0.50  0.50  0.50  0.50  0.50  0.50  0.50  0.62  0.75  0.88  0.75  0.63  0.50  0.50  0.50
0.50  0.50  0.50  0.50  0.63  0.75  0.88  0.75  0.62  0.50  0.50  0.50  0.50  0.50  0.50  0.50  0.62  0.75  0.88  0.75  0.63  0.50  0.50  0.50
0.50  0.50  0.50  0.50  0.63  0.75  0.88  0.75  0.62  0.50  0.50  0.50  0.50  0.50  0.50  0.50  0.62  0.75  0.88  0.75  0.63  0.50  0.50  0.50
0.50  0.50  0.50  0.50  0.63  0.75  0.88  0.75  0.62  0.50  0.50  0.50  0.50  0.50  0.50  0.50  0.62  0.75  0.88  0.75  0.63  0.50  0.50  0.50
0.50  0.50  0.50  0.50  0.63  0.75  0.88  0.75  0.62  0.50  0.50  0.50  0.50  0.50  0.50  0.50  0.62  0.75  0.88  0.75  0.63  0.50  0.50  0.50
0.50  0.50  0.50  0.50  0.63  0.75  0.88  0.75  0.62  0.50  0.50  0.50  0.50  0.50  0.50  0.50  0.62  0.75  0.88  0.75  0.63  0.50  0.50  0.50
0.50  0.50  0.50  0.50  0.63  0.75  0.88  0.75  0.62  0.50  0.50  0.50  0.50  0.50  0.50  0.50  0.62  0.75  0.88  0.75  0.63  0.50  0.50  0.50
0.50  0.50  0.50  0.50  0.63  0.75  0.88  0.75  0.62  0.50  0.50  0.50  0.50  0.50  0.50  0.50  0.62  0.75  0.88  0.75  0.63  0.50  0.50  0.50
0.50  0.50  0.50  0.50  0.63  0.75  0.88  0.75  0.62  0.50  0.50  0.50  0.50  0.50  0.50  0.50  0.62  0.75  0.88  0.75  0.63  0.50  0.50  0.50
0.50  0.50  0.50  0.50  0.63  0.75  0.88  0.75  0.62  0.50  0.50  0.50  0.50  0.50  0.50  0.50  0.62  0.75  0.88  0.75  0.63  0.50  0.50  0.50
0.50  0.50  0.50  0.50  0.63  0.75  0.88  0.75  0.62  0.50  0.50  0.50  0.50  0.50  0.50  0.50  0.62  0.75  0.88  0.75  0.63  0.50  0.50  0.50
0.50  0.50  0.50  0.50  0.63  0.75  0.88  0.75  0.62  0.50  0.50  0.50  0.50  0.50  0.50  0.50  0.62  0.75  0.88  0.75  0.63  0.50  0.50  0.50
0.50  0.50  0.50  0.50  0.63  0.75  0.88  0.75  0.62  0.50  0.50  0.50  0.50  0.50  0.50  0.50  0.62  0.75  0.88  0.75  0.63  0.50  0.50  0.50
0.50  0.50  0.50  0.50  0.63  0.75  0.88  0.75  0.62  0.50  0.50  0.50  0.50  0.50  0.50  0.50  0.62  0.75  0.88  0.75  0.63  0.50  0.50  0.50
0.50  0.50  0.50  0.50  0.63  0.75  0.88  0.75  0.62  0.50  0.50  0.50  0.50  0.50  0.50  0.50  0.62  0.75  0.88  0.75  0.63  0.50  0.50  0.50
0.50  0.50  0.50  0.50  0.63  0.75  0.88  0.75  0.62  0.50  0.50  0.50  0.50  0.50  0.50  0.50  0.62  0.75  0.88  0.75  0.63  0.50  0.50  0.50
0.50  0.50  0.50  0.50  0.63  0.75  0.88  0.75  0.62  0.50  0.50  0.50  0.50  0.50  0.50  0.50  0.62  0.75  0.88  0.75  0.63  0.50  0.50  0.50
0.50  0.50  0.50  0.50  0.63  0.75  0.88  0.75  0.62  0.50  0.50  0.50  0.50  0.50  0.50  0.50  0.62  0.75  0.88  0.75  0.63  0.50  0.50  0.50
0.50  0.50  0.50  0.50  0.63  0.75  0.88  0.75  0.62  0.50  0.50  0.50  0.50  0.50  0.50  0.50  0.62  0.75  0.88  0.75  0.63  0.50  0.50  0.50
0.50  0.50  0.50  0.50  0.63  0.75  0.88  0.75  0.62  0.50  0.50  0.50  0.50  0.50  0.50  0.50  0.62  0.75  0.88  0.75  0.63  0.50  0.50  0.50
0.50  0.50  0.50  0.50  0.63  0.75  0.88  0.75  0.62  0.50  0.50  0.50  0.50  0.50  0.50  0.50  0.62  0.75  0.88  0.75  0.63  0.50  0.50  0.50
0.50  0.50  0.50  0.50  0.63  0.75  0.88  0.75  0.62  0.50  0.50  0.50  0.50  0.50  0.50  0.50  0.62  0.75  0.88  0.75  0.63  0.50  0.50  0.50
0.50  0.50  0.50  0.50  0.63  0.75  0.88  0.75  0.62  0.50  0.50  0.50  0.50  0.50  0.50  0.50  0.62  0.75  0.88  0.75  0.63  0.50  0.50  0.50
0.50  0.50  0.50  0.50  0.63  0.75  0.88  0.75  0.62  0.50  0.50  0.50  0.50  0.50  0.50  0.50  0.62  0.75  0.88  0.75  0.63  0.50  0.50  0.50
0.50  0.50  0.50  0.50  0.63  0.75  0.88  0.75  0.62  0.50  0.50  0.50  0.50  0.50  0.50  0.50  0.62  0.75  0.88  0.75  0.63  0.50  0.50  0.50
$beta by ik, ith
0.50  0.50  0.50  0.50  0.63  0.75  0.88  0.84  0.80  0.76  0.82  0.88  0.94  0.89  0.85  0.80  0.83  0.86  0.89  0.77  0.65  0.53  0.52  0.51
0.50  0.50  0.50  0.50  0.63  0.75  0.88  0.84  0.80  0.76  0.82  0.88  0.94  0.89  0.85  0.80  0.83  0.86  0.89  0.77  0.65  0.53  0.52  0.51
0.50  0.50  0.50  0.50  0.63  0.75  0.88  0.84  0.80  0.76  0.82  0.88  0.94  0.89  0.85  0.80  0.83  0.86  0.89  0.77  0.65  0.53  0.52  0.51
0.50  0.50  0.50  0.50  0.63  0.75  0.88  0.84  0.80  0.76  0.82  0.88  0.94  0.89  0.85  0.80  0.83  0.86  0.89  0.77  0.65  0.53  0.52  0.51
0.50  0.50  0.50  0.50  0.63  0.75  0.88  0.84  0.80  0.76  0.82  0.88  0.94  0.89  0.85  0.80  0.83  0.86  0.89  0.77  0.65  0.53  0.52  0.51
0.50  0.50  0.50  0.50  0.63  0.75  0.88  0.84  0.80  0.76  0.82  0.88  0.94  0.89  0.85  0.80  0.83  0.86  0.89  0.77  0.65  0.53  0.52  0.51
0.50  0.50  0.50  0.50  0.63  0.75  0.88  0.84  0.80  0.76  0.82  0.88  0.94  0.89  0.85  0.80  0.83  0.86  0.89  0.77  0.65  0.53  0.52  0.51
0.50  0.50  0.50  0.50  0.63  0.75  0.88  0.84  0.80  0.76  0.82  0.88  0.94  0.89  0.85  0.80  0.83  0.86  0.89  0.77  0.65  0.53  0.52  0.51
0.50  0.50  0.50  0.50  0.63  0.75  0.88  0.84  0.80  0.76  0.82  0.88  0.94  0.89  0.85  0.80  0.83  0.86  0.89  0.77  0.65  0.53  0.52  0.51
0.50  0.50  0.50  0.50  0.63  0.75  0.88  0.84  0.80  0.76  0.82  0.88  0.94  0.89  0.85  0.80  0.83  0.86  0.89  0.77  0.65  0.53  0.52  0.51
0.50  0.50  0.50  0.50  0.63  0.75  0.88  0.84  0.80  0.76  0.82  0.88  0.94  0.89  0.85  0.80  0.83  0.86  0.89  0.77  0.65  0.53  0.52  0.51
0.50  0.50  0.50  0.50  0.63  0.75  0.88  0.84  0.80  0.76  0.82  0.88  0.94  0.89  0.85  0.80  0.83  0.86  0.89  0.77  0.65  0.53  0.52  0.51
0.50  0.50  0.50  0.50  0.63  0.75  0.88  0.84  0.80  0.76  0.82  0.88  0.94  0.89  0.85  0.80  0.83  0.86  0.89  0.77  0.65  0.53  0.52  0.51
0.50  0.50  0.50  0.50  0.63  0.75  0.88  0.84  0.80  0.76  0.82  0.88  0.94  0.89  0.85  0.80  0.83  0.86  0.89  0.77  0.65  0.53  0.52  0.51
0.50  0.50  0.50  0.50  0.63  0.75  0.88  0.84  0.80  0.76  0.82  0.88  0.94  0.89  0.85  0.80  0.83  0.86  0.89  0.77  0.65  0.53  0.52  0.51
0.50  0.50  0.50  0.50  0.63  0.75  0.88  0.84  0.80  0.76  0.82  0.88  0.94  0.89  0.85  0.80  0.83  0.86  0.89  0.77  0.65  0.53  0.52  0.51
0.50  0.50  0.50  0.50  0.63  0.75  0.88  0.84  0.80  0.76  0.82  0.88  0.94  0.89  0.85  0.80  0.83  0.86  0.89  0.77  0.65  0.53  0.52  0.51
0.50  0.50  0.50  0.50  0.63  0.75  0.88  0.84  0.80  0.76  0.82  0.88  0.94  0.89  0.85  0.80  0.83  0.86  0.89  0.77  0.65  0.53  0.52  0.51
0.50  0.50  0.50  0.50  0.63  0.75  0.88  0.84  0.80  0.76  0.82  0.88  0.94  0.89  0.85  0.80  0.83  0.86  0.89  0.77  0.65  0.53  0.52  0.51
0.50  0.50  0.50  0.50  0.63  0.75  0.88  0.84  0.80  0.76  0.82  0.88  0.94  0.89  0.85  0.80  0.83  0.86  0.89  0.77  0.65  0.53  0.52  0.51
0.50  0.50  0.50  0.50  0.63  0.75  0.88  0.84  0.80  0.76  0.82  0.88  0.94  0.89  0.85  0.80  0.83  0.86  0.89  0.77  0.65  0.53  0.52  0.51
0.50  0.50  0.50  0.50  0.63  0.75  0.88  0.84  0.80  0.76  0.82  0.88  0.94  0.89  0.85  0.80  0.83  0.86  0.89  0.77  0.65  0.53  0.52  0.51
0.50  0.50  0.50  0.50  0.63  0.75  0.88  0.84  0.80  0.76  0.82  0.88  0.94  0.89  0.85  0.80  0.83  0.86  0.89  0.77  0.65  0.53  0.52  0.51
0.50  0.50  0.50  0.50  0.63  0.75  0.88  0.84  0.80  0.76  0.82  0.88  0.94  0.89  0.85  0.80  0.83  0.86  0.89  0.77  0.65  0.53  0.52  0.51
0.50  0.50  0.50  0.50  0.63  0.75  0.88  0.84  0.80  0.76  0.82  0.88  0.94  0.89  0.85  0.80  0.83  0.86  0.89  0.77  0.65  0.53  0.52  0.51
$ ilon ilat of the cell. lon: 8.2, 34.8
6   8
$ sizes of the cell in km
    73.117       82.528       95.887      115.149      105.665       97.749       88.956       97.749      105.665      115.149       95.887       82.528       73.117       82.528       95.887      115.149      105.665       97.749       88.956       97.749      105.665      115.149       95.887       82.528
$ mean alpha: 0.59375
$ mean beta: 0.724733980879
$alpha by ik, ith
0.50  0.50  0.50  0.50  0.62  0.75  0.88  0.75  0.62  0.50  0.50  0.50  0.50  0.50  0.50  0.50  0.62  0.75  0.88  0.75  0.62  0.50  0.50  0.50
0.50  0.50  0.50  0.50  0.62  0.75  0.88  0.75  0.62  0.50  0.50  0.50  0.50  0.50  0.50  0.50  0.62  0.75  0.88  0.75  0.62  0.50  0.50  0.50
0.50  0.50  0.50  0.50  0.62  0.75  0.88  0.75  0.62  0.50  0.50  0.50  0.50  0.50  0.50  0.50  0.62  0.75  0.88  0.75  0.62  0.50  0.50  0.50
0.50  0.50  0.50  0.50  0.62  0.75  0.88  0.75  0.62  0.50  0.50  0.50  0.50  0.50  0.50  0.50  0.62  0.75  0.88  0.75  0.62  0.50  0.50  0.50
0.50  0.50  0.50  0.50  0.62  0.75  0.88  0.75  0.62  0.50  0.50  0.50  0.50  0.50  0.50  0.50  0.62  0.75  0.88  0.75  0.62  0.50  0.50  0.50
0.50  0.50  0.50  0.50  0.62  0.75  0.88  0.75  0.62  0.50  0.50  0.50  0.50  0.50  0.50  0.50  0.62  0.75  0.88  0.75  0.62  0.50  0.50  0.50
0.50  0.50  0.50  0.50  0.62  0.75  0.88  0.75  0.62  0.50  0.50  0.50  0.50  0.50  0.50  0.50  0.62  0.75  0.88  0.75  0.62  0.50  0.50  0.50
0.50  0.50  0.50  0.50  0.62  0.75  0.88  0.75  0.62  0.50  0.50  0.50  0.50  0.50  0.50  0.50  0.62  0.75  0.88  0.75  0.62  0.50  0.50  0.50
0.50  0.50  0.50  0.50  0.62  0.75  0.88  0.75  0.62  0.50  0.50  0.50  0.50  0.50  0.50  0.50  0.62  0.75  0.88  0.75  0.62  0.50  0.50  0.50
0.50  0.50  0.50  0.50  0.62  0.75  0.88  0.75  0.62  0.50  0.50  0.50  0.50  0.50  0.50  0.50  0.62  0.75  0.88  0.75  0.62  0.50  0.50  0.50
0.50  0.50  0.50  0.50  0.62  0.75  0.88  0.75  0.62  0.50  0.50  0.50  0.50  0.50  0.50  0.50  0.62  0.75  0.88  0.75  0.62  0.50  0.50  0.50
0.50  0.50  0.50  0.50  0.62  0.75  0.88  0.75  0.62  0.50  0.50  0.50  0.50  0.50  0.50  0.50  0.62  0.75  0.88  0.75  0.62  0.50  0.50  0.50
0.50  0.50  0.50  0.50  0.62  0.75  0.88  0.75  0.62  0.50  0.50  0.50  0.50  0.50  0.50  0.50  0.62  0.75  0.88  0.75  0.62  0.50  0.50  0.50
0.50  0.50  0.50  0.50  0.62  0.75  0.88  0.75  0.62  0.50  0.50  0.50  0.50  0.50  0.50  0.50  0.62  0.75  0.88  0.75  0.62  0.50  0.50  0.50
0.50  0.50  0.50  0.50  0.62  0.75  0.88  0.75  0.62  0.50  0.50  0.50  0.50  0.50  0.50  0.50  0.62  0.75  0.88  0.75  0.62  0.50  0.50  0.50
0.50  0.50  0.50  0.50  0.62  0.75  0.88  0.75  0.62  0.50  0.50  0.50  0.50  0.50  0.50  0.50  0.62  0.75  0.88  0.75  0.62  0.50  0.50  0.50
0.50  0.50  0.50  0.50  0.62  0.75  0.88  0.75  0.62  0.50  0.50  0.50  0.50  0.50  0.50  0.50  0.62  0.75  0.88  0.75  0.62  0.50  0.50  0.50
0.50  0.50  0.50  0.50  0.62  0.75  0.88  0.75  0.62  0.50  0.50  0.50  0.50  0.50  0.50  0.50  0.62  0.75  0.88  0.75  0.62  0.50  0.50  0.50
0.50  0.50  0.50  0.50  0.62  0.75  0.88  0.75  0.62  0.50  0.50  0.50  0.50  0.50  0.50  0.50  0.62  0.75  0.88  0.75  0.62  0.50  0.50  0.50
0.50  0.50  0.50  0.50  0.62  0.75  0.88  0.75  0.62  0.50  0.50  0.50  0.50  0.50  0.50  0.50  0.62  0.75  0.88  0.75  0.62  0.50  0.50  0.50
0.50  0.50  0.50  0.50  0.62  0.75  0.88  0.75  0.62  0.50  0.50  0.50  0.50  0.50  0.50  0.50  0.62  0.75  0.88  0.75  0.62  0.50  0.50  0.50
0.50  0.50  0.50  0.50  0.62  0.75  0.88  0.75  0.62  0.50  0.50  0.50  0.50  0.50  0.50  0.50  0.62  0.75  0.88  0.75  0.62  0.50  0.50  0.50
0.50  0.50  0.50  0.50  0.62  0.75  0.88  0.75  0.62  0.50  0.50  0.50  0.50  0.50  0.50  0.50  0.62  0.75  0.88  0.75  0.62  0.50  0.50  0.50
0.50  0.50  0.50  0.50  0.62  0.75  0.88  0.75  0.62  0.50  0.50  0.50  0.50  0.50  0.50  0.50  0.62  0.75  0.88  0.75  0.62  0.50  0.50  0.50
0.50  0.50  0.50  0.50  0.62  0.75  0.88  0.75  0.62  0.50  0.50  0.50  0.50  0.50  0.50  0.50  0.62  0.75  0.88  0.75  0.62  0.50  0.50  0.50
$beta by ik, ith
0.50  0.50  0.50  0.50  0.62  0.75  0.88  0.84  0.80  0.76  0.82  0.88  0.94  0.89  0.85  0.80  0.83  0.86  0.89  0.77  0.65  0.53  0.52  0.51
0.50  0.50  0.50  0.50  0.62  0.75  0.88  0.84  0.80  0.76  0.82  0.88  0.94  0.89  0.85  0.80  0.83  0.86  0.89  0.77  0.65  0.53  0.52  0.51
0.50  0.50  0.50  0.50  0.62  0.75  0.88  0.84  0.80  0.76  0.82  0.88  0.94  0.89  0.85  0.80  0.83  0.86  0.89  0.77  0.65  0.53  0.52  0.51
0.50  0.50  0.50  0.50  0.62  0.75  0.88  0.84  0.80  0.76  0.82  0.88  0.94  0.89  0.85  0.80  0.83  0.86  0.89  0.77  0.65  0.53  0.52  0.51
0.50  0.50  0.50  0.50  0.62  0.75  0.88  0.84  0.80  0.76  0.82  0.88  0.94  0.89  0.85  0.80  0.83  0.86  0.89  0.77  0.65  0.53  0.52  0.51
0.50  0.50  0.50  0.50  0.62  0.75  0.88  0.84  0.80  0.76  0.82  0.88  0.94  0.89  0.85  0.80  0.83  0.86  0.89  0.77  0.65  0.53  0.52  0.51
0.50  0.50  0.50  0.50  0.62  0.75  0.88  0.84  0.80  0.76  0.82  0.88  0.94  0.89  0.85  0.80  0.83  0.86  0.89  0.77  0.65  0.53  0.52  0.51
0.50  0.50  0.50  0.50  0.62  0.75  0.88  0.84  0.80  0.76  0.82  0.88  0.94  0.89  0.85  0.80  0.83  0.86  0.89  0.77  0.65  0.53  0.52  0.51
0.50  0.50  0.50  0.50  0.62  0.75  0.88  0.84  0.80  0.76  0.82  0.88  0.94  0.89  0.85  0.80  0.83  0.86  0.89  0.77  0.65  0.53  0.52  0.51
0.50  0.50  0.50  0.50  0.62  0.75  0.88  0.84  0.80  0.76  0.82  0.88  0.94  0.89  0.85  0.80  0.83  0.86  0.89  0.77  0.65  0.53  0.52  0.51
0.50  0.50  0.50  0.50  0.62  0.75  0.88  0.84  0.80  0.76  0.82  0.88  0.94  0.89  0.85  0.80  0.83  0.86  0.89  0.77  0.65  0.53  0.52  0.51
0.50  0.50  0.50  0.50  0.62  0.75  0.88  0.84  0.80  0.76  0.82  0.88  0.94  0.89  0.85  0.80  0.83  0.86  0.89  0.77  0.65  0.53  0.52  0.51
0.50  0.50  0.50  0.50  0.62  0.75  0.88  0.84  0.80  0.76  0.82  0.88  0.94  0.89  0.85  0.80  0.83  0.86  0.89  0.77  0.65  0.53  0.52  0.51
0.50  0.50  0.50  0.50  0.62  0.75  0.88  0.84  0.80  0.76  0.82  0.88  0.94  0.89  0.85  0.80  0.83  0.86  0.89  0.77  0.65  0.53  0.52  0.51
0.50  0.50  0.50  0.50  0.62  0.75  0.88  0.84  0.80  0.76  0.82  0.88  0.94  0.89  0.85  0.80  0.83  0.86  0.89  0.77  0.65  0.53  0.52  0.51
0.50  0.50  0.50  0.50  0.62  0.75  0.88  0.84  0.80  0.76  0.82  0.88  0.94  0.89  0.85  0.80  0.83  0.86  0.89  0.77  0.65  0.53  0.52  0.51
0.50  0.50  0.50  0.50  0.62  0.75  0.88  0.84  0.80  0.76  0.82  0.88  0.94  0.89  0.85  0.80  0.83  0.86  0.89  0.77  0.65  0.53  0.52  0.51
0.50  0.50  0.50  0.50  0.62  0.75  0.88  0.84  0.80  0.76  0.82  0.88  0.94  0.89  0.85  0.80  0.83  0.86  0.89  0.77  0.65  0.53  0.52  0.51
0.50  0.50  0.50  0.50  0.62  0.75  0.88  0.84  0.80  0.76  0.82  0.88  0.94  0.89  0.85  0.80  0.83  0.86  0.89  0.77  0.65  0.53  0.52  0.51
0.50  0.50  0.50  0.50  0.62  0.75  0.88  0.84  0.80  0.76  0.82  0.88  0.94  0.89  0.85  0.80  0.83  0.86  0.89  0.77  0.65  0.53  0.52  0.51
0.50  0.50  0.50  0.50  0.62  0.75  0.88  0.84  0.80  0.76  0.82  0.88  0.94  0.89  0.85  0.80  0.83  0.86  0.89  0.77  0.65  0.53  0.52  0.51
0.50  0.50  0.50  0.50  0.62  0.75  0.88  0.84  0.80  0.76  0.82  0.88  0.94  0.89  0.85  0.80  0.83  0.86  0.89  0.77  0.65  0.53  0.52  0.51
0.50  0.50  0.50  0.50  0.62  0.75  0.88  0.84  0.80  0.76  0.82  0.88  0.94  0.89  0.85  0.80  0.83  0.86  0.89  0.77  0.65  0.53  0.52  0.51
0.50  0.50  0.50  0.50  0.62  0.75  0.88  0.84  0.80  0.76  0.82  0.88  0.94  0.89  0.85  0.80  0.83  0.86  0.89  0.77  0.65  0.53  0.52  0.51
0.50  0.50  0.50  0.50  0.62  0.75  0.88  0.84  0.80  0.76  0.82  0.88  0.94  0.89  0.85  0.80  0.83  0.86  0.89  0.77  0.65  0.53  0.52  0.51
$ ilon ilat of the cell. lon: 8.2, 35.6
6   9
$ sizes of the cell in km
    72.402       81.799       95.260      114.696      105.476       97.705       88.956       97.705      105.476      114.696       95.260       81.799       72.402       81.799       95.260      114.696      105.476       97.705       88.956       97.705      105.476      114.696       95.260       81.799
$ mean alpha: 0.59375
$ mean beta: 0.724733980879
$alpha by ik, ith
0.50  0.50  0.50  0.50  0.63  0.75  0.88  0.75  0.62  0.50  0.50  0.50  0.50  0.50  0.50  0.50  0.62  0.75  0.88  0.75  0.63  0.50  0.50  0.50
0.50  0.50  0.50  0.50  0.63  0.75  0.88  0.75  0.62  0.50  0.50  0.50  0.50  0.50  0.50  0.50  0.62  0.75  0.88  0.75  0.63  0.50  0.50  0.50
0.50  0.50  0.50  0.50  0.63  0.75  0.88  0.75  0.62  0.50  0.50  0.50  0.50  0.50  0.50  0.50  0.62  0.75  0.88  0.75  0.63  0.50  0.50  0.50
0.50  0.50  0.50  0.50  0.63  0.75  0.88  0.75  0.62  0.50  0.50  0.50  0.50  0.50  0.50  0.50  0.62  0.75  0.88  0.75  0.63  0.50  0.50  0.50
0.50  0.50  0.50  0.50  0.63  0.75  0.88  0.75  0.62  0.50  0.50  0.50  0.50  0.50  0.50  0.50  0.62  0.75  0.88  0.75  0.63  0.50  0.50  0.50
0.50  0.50  0.50  0.50  0.63  0.75  0.88  0.75  0.62  0.50  0.50  0.50  0.50  0.50  0.50  0.50  0.62  0.75  0.88  0.75  0.63  0.50  0.50  0.50
0.50  0.50  0.50  0.50  0.63  0.75  0.88  0.75  0.62  0.50  0.50  0.50  0.50  0.50  0.50  0.50  0.62  0.75  0.88  0.75  0.63  0.50  0.50  0.50
0.50  0.50  0.50  0.50  0.63  0.75  0.88  0.75  0.62  0.50  0.50  0.50  0.50  0.50  0.50  0.50  0.62  0.75  0.88  0.75  0.63  0.50  0.50  0.50
0.50  0.50  0.50  0.50  0.63  0.75  0.88  0.75  0.62  0.50  0.50  0.50  0.50  0.50  0.50  0.50  0.62  0.75  0.88  0.75  0.63  0.50  0.50  0.50
0.50  0.50  0.50  0.50  0.63  0.75  0.88  0.75  0.62  0.50  0.50  0.50  0.50  0.50  0.50  0.50  0.62  0.75  0.88  0.75  0.63  0.50  0.50  0.50
0.50  0.50  0.50  0.50  0.63  0.75  0.88  0.75  0.62  0.50  0.50  0.50  0.50  0.50  0.50  0.50  0.62  0.75  0.88  0.75  0.63  0.50  0.50  0.50
0.50  0.50  0.50  0.50  0.63  0.75  0.88  0.75  0.62  0.50  0.50  0.50  0.50  0.50  0.50  0.50  0.62  0.75  0.88  0.75  0.63  0.50  0.50  0.50
0.50  0.50  0.50  0.50  0.63  0.75  0.88  0.75  0.62  0.50  0.50  0.50  0.50  0.50  0.50  0.50  0.62  0.75  0.88  0.75  0.63  0.50  0.50  0.50
0.50  0.50  0.50  0.50  0.63  0.75  0.88  0.75  0.62  0.50  0.50  0.50  0.50  0.50  0.50  0.50  0.62  0.75  0.88  0.75  0.63  0.50  0.50  0.50
0.50  0.50  0.50  0.50  0.63  0.75  0.88  0.75  0.62  0.50  0.50  0.50  0.50  0.50  0.50  0.50  0.62  0.75  0.88  0.75  0.63  0.50  0.50  0.50
0.50  0.50  0.50  0.50  0.63  0.75  0.88  0.75  0.62  0.50  0.50  0.50  0.50  0.50  0.50  0.50  0.62  0.75  0.88  0.75  0.63  0.50  0.50  0.50
0.50  0.50  0.50  0.50  0.63  0.75  0.88  0.75  0.62  0.50  0.50  0.50  0.50  0.50  0.50  0.50  0.62  0.75  0.88  0.75  0.63  0.50  0.50  0.50
0.50  0.50  0.50  0.50  0.63  0.75  0.88  0.75  0.62  0.50  0.50  0.50  0.50  0.50  0.50  0.50  0.62  0.75  0.88  0.75  0.63  0.50  0.50  0.50
0.50  0.50  0.50  0.50  0.63  0.75  0.88  0.75  0.62  0.50  0.50  0.50  0.50  0.50  0.50  0.50  0.62  0.75  0.88  0.75  0.63  0.50  0.50  0.50
0.50  0.50  0.50  0.50  0.63  0.75  0.88  0.75  0.62  0.50  0.50  0.50  0.50  0.50  0.50  0.50  0.62  0.75  0.88  0.75  0.63  0.50  0.50  0.50
0.50  0.50  0.50  0.50  0.63  0.75  0.88  0.75  0.62  0.50  0.50  0.50  0.50  0.50  0.50  0.50  0.62  0.75  0.88  0.75  0.63  0.50  0.50  0.50
0.50  0.50  0.50  0.50  0.63  0.75  0.88  0.75  0.62  0.50  0.50  0.50  0.50  0.50  0.50  0.50  0.62  0.75  0.88  0.75  0.63  0.50  0.50  0.50
0.50  0.50  0.50  0.50  0.63  0.75  0.88  0.75  0.62  0.50  0.50  0.50  0.50  0.50  0.50  0.50  0.62  0.75  0.88  0.75  0.63  0.50  0.50  0.50
0.50  0.50  0.50  0.50  0.63  0.75  0.88  0.75  0.62  0.50  0.50  0.50  0.50  0.50  0.50  0.50  0.62  0.75  0.88  0.75  0.63  0.50  0.50  0.50
0.50  0.50  0.50  0.50  0.63  0.75  0.88  0.75  0.62  0.50  0.50  0.50  0.50  0.50  0.50  0.50  0.62  0.75  0.88  0.75  0.63  0.50  0.50  0.50
$beta by ik, ith
0.50  0.50  0.50  0.50  0.63  0.75  0.88  0.84  0.80  0.76  0.82  0.88  0.94  0.89  0.85  0.80  0.83  0.86  0.89  0.77  0.65  0.53  0.52  0.51
0.50  0.50  0.50  0.50  0.63  0.75  0.88  0.84  0.80  0.76  0.82  0.88  0.94  0.89  0.85  0.80  0.83  0.86  0.89  0.77  0.65  0.53  0.52  0.51
0.50  0.50  0.50  0.50  0.63  0.75  0.88  0.84  0.80  0.76  0.82  0.88  0.94  0.89  0.85  0.80  0.83  0.86  0.89  0.77  0.65  0.53  0.52  0.51
0.50  0.50  0.50  0.50  0.63  0.75  0.88  0.84  0.80  0.76  0.82  0.88  0.94  0.89  0.85  0.80  0.83  0.86  0.89  0.77  0.65  0.53  0.52  0.51
0.50  0.50  0.50  0.50  0.63  0.75  0.88  0.84  0.80  0.76  0.82  0.88  0.94  0.89  0.85  0.80  0.83  0.86  0.89  0.77  0.65  0.53  0.52  0.51
0.50  0.50  0.50  0.50  0.63  0.75  0.88  0.84  0.80  0.76  0.82  0.88  0.94  0.89  0.85  0.80  0.83  0.86  0.89  0.77  0.65  0.53  0.52  0.51
0.50  0.50  0.50  0.50  0.63  0.75  0.88  0.84  0.80  0.76  0.82  0.88  0.94  0.89  0.85  0.80  0.83  0.86  0.89  0.77  0.65  0.53  0.52  0.51
0.50  0.50  0.50  0.50  0.63  0.75  0.88  0.84  0.80  0.76  0.82  0.88  0.94  0.89  0.85  0.80  0.83  0.86  0.89  0.77  0.65  0.53  0.52  0.51
0.50  0.50  0.50  0.50  0.63  0.75  0.88  0.84  0.80  0.76  0.82  0.88  0.94  0.89  0.85  0.80  0.83  0.86  0.89  0.77  0.65  0.53  0.52  0.51
0.50  0.50  0.50  0.50  0.63  0.75  0.88  0.84  0.80  0.76  0.82  0.88  0.94  0.89  0.85  0.80  0.83  0.86  0.89  0.77  0.65  0.53  0.52  0.51
0.50  0.50  0.50  0.50  0.63  0.75  0.88  0.84  0.80  0.76  0.82  0.88  0.94  0.89  0.85  0.80  0.83  0.86  0.89  0.77  0.65  0.53  0.52  0.51
0.50  0.50  0.50  0.50  0.63  0.75  0.88  0.84  0.80  0.76  0.82  0.88  0.94  0.89  0.85  0.80  0.83  0.86  0.89  0.77  0.65  0.53  0.52  0.51
0.50  0.50  0.50  0.50  0.63  0.75  0.88  0.84  0.80  0.76  0.82  0.88  0.94  0.89  0.85  0.80  0.83  0.86  0.89  0.77  0.65  0.53  0.52  0.51
0.50  0.50  0.50  0.50  0.63  0.75  0.88  0.84  0.80  0.76  0.82  0.88  0.94  0.89  0.85  0.80  0.83  0.86  0.89  0.77  0.65  0.53  0.52  0.51
0.50  0.50  0.50  0.50  0.63  0.75  0.88  0.84  0.80  0.76  0.82  0.88  0.94  0.89  0.85  0.80  0.83  0.86  0.89  0.77  0.65  0.53  0.52  0.51
0.50  0.50  0.50  0.50  0.63  0.75  0.88  0.84  0.80  0.76  0.82  0.88  0.94  0.89  0.85  0.80  0.83  0.86  0.89  0.77  0.65  0.53  0.52  0.51
0.50  0.50  0.50  0.50  0.63  0.75  0.88  0.84  0.80  0.76  0.82  0.88  0.94  0.89  0.85  0.80  0.83  0.86  0.89  0.77  0.65  0.53  0.52  0.51
0.50  0.50  0.50  0.50  0.63  0.75  0.88  0.84  0.80  0.76  0.82  0.88  0.94  0.89  0.85  0.80  0.83  0.86  0.89  0.77  0.65  0.53  0.52  0.51
0.50  0.50  0.50  0.50  0.63  0.75  0.88  0.84  0.80  0.76  0.82  0.88  0.94  0.89  0.85  0.80  0.83  0.86  0.89  0.77  0.65  0.53  0.52  0.51
0.50  0.50  0.50  0.50  0.63  0.75  0.88  0.84  0.80  0.76  0.82  0.88  0.94  0.89  0.85  0.80  0.83  0.86  0.89  0.77  0.65  0.53  0.52  0.51
0.50  0.50  0.50  0.50  0.63  0.75  0.88  0.84  0.80  0.76  0.82  0.88  0.94  0.89  0.85  0.80  0.83  0.86  0.89  0.77  0.65  0.53  0.52  0.51
0.50  0.50  0.50  0.50  0.63  0.75  0.88  0.84  0.80  0.76  0.82  0.88  0.94  0.89  0.85  0.80  0.83  0.86  0.89  0.77  0.65  0.53  0.52  0.51
0.50  0.50  0.50  0.50  0.63  0.75  0.88  0.84  0.80  0.76  0.82  0.88  0.94  0.89  0.85  0.80  0.83  0.86  0.89  0.77  0.65  0.53  0.52  0.51
0.50  0.50  0.50  0.50  0.63  0.75  0.88  0.84  0.80  0.76  0.82  0.88  0.94  0.89  0.85  0.80  0.83  0.86  0.89  0.77  0.65  0.53  0.52  0.51
0.50  0.50  0.50  0.50  0.63  0.75  0.88  0.84  0.80  0.76  0.82  0.88  0.94  0.89  0.85  0.80  0.83  0.86  0.89  0.77  0.65  0.53  0.52  0.51
$ ilon ilat of the cell. lon: 8.2, 36.4
6   10
$ sizes of the cell in km
    71.674       81.057       94.624      114.238      105.285       97.661       88.956       97.661      105.285      114.238       94.624       81.057       71.674       81.057       94.624      114.238      105.285       97.661       88.956       97.661      105.285      114.238       94.624       81.057
$ mean alpha: 0.59375
$ mean beta: 0.724733980879
$alpha by ik, ith
0.50  0.50  0.50  0.50  0.63  0.75  0.88  0.75  0.62  0.50  0.50  0.50  0.50  0.50  0.50  0.50  0.62  0.75  0.88  0.75  0.63  0.50  0.50  0.50
0.50  0.50  0.50  0.50  0.63  0.75  0.88  0.75  0.62  0.50  0.50  0.50  0.50  0.50  0.50  0.50  0.62  0.75  0.88  0.75  0.63  0.50  0.50  0.50
0.50  0.50  0.50  0.50  0.63  0.75  0.88  0.75  0.62  0.50  0.50  0.50  0.50  0.50  0.50  0.50  0.62  0.75  0.88  0.75  0.63  0.50  0.50  0.50
0.50  0.50  0.50  0.50  0.63  0.75  0.88  0.75  0.62  0.50  0.50  0.50  0.50  0.50  0.50  0.50  0.62  0.75  0.88  0.75  0.63  0.50  0.50  0.50
0.50  0.50  0.50  0.50  0.63  0.75  0.88  0.75  0.62  0.50  0.50  0.50  0.50  0.50  0.50  0.50  0.62  0.75  0.88  0.75  0.63  0.50  0.50  0.50
0.50  0.50  0.50  0.50  0.63  0.75  0.88  0.75  0.62  0.50  0.50  0.50  0.50  0.50  0.50  0.50  0.62  0.75  0.88  0.75  0.63  0.50  0.50  0.50
0.50  0.50  0.50  0.50  0.63  0.75  0.88  0.75  0.62  0.50  0.50  0.50  0.50  0.50  0.50  0.50  0.62  0.75  0.88  0.75  0.63  0.50  0.50  0.50
0.50  0.50  0.50  0.50  0.63  0.75  0.88  0.75  0.62  0.50  0.50  0.50  0.50  0.50  0.50  0.50  0.62  0.75  0.88  0.75  0.63  0.50  0.50  0.50
0.50  0.50  0.50  0.50  0.63  0.75  0.88  0.75  0.62  0.50  0.50  0.50  0.50  0.50  0.50  0.50  0.62  0.75  0.88  0.75  0.63  0.50  0.50  0.50
0.50  0.50  0.50  0.50  0.63  0.75  0.88  0.75  0.62  0.50  0.50  0.50  0.50  0.50  0.50  0.50  0.62  0.75  0.88  0.75  0.63  0.50  0.50  0.50
0.50  0.50  0.50  0.50  0.63  0.75  0.88  0.75  0.62  0.50  0.50  0.50  0.50  0.50  0.50  0.50  0.62  0.75  0.88  0.75  0.63  0.50  0.50  0.50
0.50  0.50  0.50  0.50  0.63  0.75  0.88  0.75  0.62  0.50  0.50  0.50  0.50  0.50  0.50  0.50  0.62  0.75  0.88  0.75  0.63  0.50  0.50  0.50
0.50  0.50  0.50  0.50  0.63  0.75  0.88  0.75  0.62  0.50  0.50  0.50  0.50  0.50  0.50  0.50  0.62  0.75  0.88  0.75  0.63  0.50  0.50  0.50
0.50  0.50  0.50  0.50  0.63  0.75  0.88  0.75  0.62  0.50  0.50  0.50  0.50  0.50  0.50  0.50  0.62  0.75  0.88  0.75  0.63  0.50  0.50  0.50
0.50  0.50  0.50  0.50  0.63  0.75  0.88  0.75  0.62  0.50  0.50  0.50  0.50  0.50  0.50  0.50  0.62  0.75  0.88  0.75  0.63  0.50  0.50  0.50
0.50  0.50  0.50  0.50  0.63  0.75  0.88  0.75  0.62  0.50  0.50  0.50  0.50  0.50  0.50  0.50  0.62  0.75  0.88  0.75  0.63  0.50  0.50  0.50
0.50  0.50  0.50  0.50  0.63  0.75  0.88  0.75  0.62  0.50  0.50  0.50  0.50  0.50  0.50  0.50  0.62  0.75  0.88  0.75  0.63  0.50  0.50  0.50
0.50  0.50  0.50  0.50  0.63  0.75  0.88  0.75  0.62  0.50  0.50  0.50  0.50  0.50  0.50  0.50  0.62  0.75  0.88  0.75  0.63  0.50  0.50  0.50
0.50  0.50  0.50  0.50  0.63  0.75  0.88  0.75  0.62  0.50  0.50  0.50  0.50  0.50  0.50  0.50  0.62  0.75  0.88  0.75  0.63  0.50  0.50  0.50
0.50  0.50  0.50  0.50  0.63  0.75  0.88  0.75  0.62  0.50  0.50  0.50  0.50  0.50  0.50  0.50  0.62  0.75  0.88  0.75  0.63  0.50  0.50  0.50
0.50  0.50  0.50  0.50  0.63  0.75  0.88  0.75  0.62  0.50  0.50  0.50  0.50  0.50  0.50  0.50  0.62  0.75  0.88  0.75  0.63  0.50  0.50  0.50
0.50  0.50  0.50  0.50  0.63  0.75  0.88  0.75  0.62  0.50  0.50  0.50  0.50  0.50  0.50  0.50  0.62  0.75  0.88  0.75  0.63  0.50  0.50  0.50
0.50  0.50  0.50  0.50  0.63  0.75  0.88  0.75  0.62  0.50  0.50  0.50  0.50  0.50  0.50  0.50  0.62  0.75  0.88  0.75  0.63  0.50  0.50  0.50
0.50  0.50  0.50  0.50  0.63  0.75  0.88  0.75  0.62  0.50  0.50  0.50  0.50  0.50  0.50  0.50  0.62  0.75  0.88  0.75  0.63  0.50  0.50  0.50
0.50  0.50  0.50  0.50  0.63  0.75  0.88  0.75  0.62  0.50  0.50  0.50  0.50  0.50  0.50  0.50  0.62  0.75  0.88  0.75  0.63  0.50  0.50  0.50
$beta by ik, ith
0.50  0.50  0.50  0.50  0.63  0.75  0.88  0.84  0.80  0.76  0.82  0.88  0.94  0.89  0.85  0.80  0.83  0.86  0.89  0.77  0.65  0.53  0.52  0.51
0.50  0.50  0.50  0.50  0.63  0.75  0.88  0.84  0.80  0.76  0.82  0.88  0.94  0.89  0.85  0.80  0.83  0.86  0.89  0.77  0.65  0.53  0.52  0.51
0.50  0.50  0.50  0.50  0.63  0.75  0.88  0.84  0.80  0.76  0.82  0.88  0.94  0.89  0.85  0.80  0.83  0.86  0.89  0.77  0.65  0.53  0.52  0.51
0.50  0.50  0.50  0.50  0.63  0.75  0.88  0.84  0.80  0.76  0.82  0.88  0.94  0.89  0.85  0.80  0.83  0.86  0.89  0.77  0.65  0.53  0.52  0.51
0.50  0.50  0.50  0.50  0.63  0.75  0.88  0.84  0.80  0.76  0.82  0.88  0.94  0.89  0.85  0.80  0.83  0.86  0.89  0.77  0.65  0.53  0.52  0.51
0.50  0.50  0.50  0.50  0.63  0.75  0.88  0.84  0.80  0.76  0.82  0.88  0.94  0.89  0.85  0.80  0.83  0.86  0.89  0.77  0.65  0.53  0.52  0.51
0.50  0.50  0.50  0.50  0.63  0.75  0.88  0.84  0.80  0.76  0.82  0.88  0.94  0.89  0.85  0.80  0.83  0.86  0.89  0.77  0.65  0.53  0.52  0.51
0.50  0.50  0.50  0.50  0.63  0.75  0.88  0.84  0.80  0.76  0.82  0.88  0.94  0.89  0.85  0.80  0.83  0.86  0.89  0.77  0.65  0.53  0.52  0.51
0.50  0.50  0.50  0.50  0.63  0.75  0.88  0.84  0.80  0.76  0.82  0.88  0.94  0.89  0.85  0.80  0.83  0.86  0.89  0.77  0.65  0.53  0.52  0.51
0.50  0.50  0.50  0.50  0.63  0.75  0.88  0.84  0.80  0.76  0.82  0.88  0.94  0.89  0.85  0.80  0.83  0.86  0.89  0.77  0.65  0.53  0.52  0.51
0.50  0.50  0.50  0.50  0.63  0.75  0.88  0.84  0.80  0.76  0.82  0.88  0.94  0.89  0.85  0.80  0.83  0.86  0.89  0.77  0.65  0.53  0.52  0.51
0.50  0.50  0.50  0.50  0.63  0.75  0.88  0.84  0.80  0.76  0.82  0.88  0.94  0.89  0.85  0.80  0.83  0.86  0.89  0.77  0.65  0.53  0.52  0.51
0.50  0.50  0.50  0.50  0.63  0.75  0.88  0.84  0.80  0.76  0.82  0.88  0.94  0.89  0.85  0.80  0.83  0.86  0.89  0.77  0.65  0.53  0.52  0.51
0.50  0.50  0.50  0.50  0.63  0.75  0.88  0.84  0.80  0.76  0.82  0.88  0.94  0.89  0.85  0.80  0.83  0.86  0.89  0.77  0.65  0.53  0.52  0.51
0.50  0.50  0.50  0.50  0.63  0.75  0.88  0.84  0.80  0.76  0.82  0.88  0.94  0.89  0.85  0.80  0.83  0.86  0.89  0.77  0.65  0.53  0.52  0.51
0.50  0.50  0.50  0.50  0.63  0.75  0.88  0.84  0.80  0.76  0.82  0.88  0.94  0.89  0.85  0.80  0.83  0.86  0.89  0.77  0.65  0.53  0.52  0.51
0.50  0.50  0.50  0.50  0.63  0.75  0.88  0.84  0.80  0.76  0.82  0.88  0.94  0.89  0.85  0.80  0.83  0.86  0.89  0.77  0.65  0.53  0.52  0.51
0.50  0.50  0.50  0.50  0.63  0.75  0.88  0.84  0.80  0.76  0.82  0.88  0.94  0.89  0.85  0.80  0.83  0.86  0.89  0.77  0.65  0.53  0.52  0.51
0.50  0.50  0.50  0.50  0.63  0.75  0.88  0.84  0.80  0.76  0.82  0.88  0.94  0.89  0.85  0.80  0.83  0.86  0.89  0.77  0.65  0.53  0.52  0.51
0.50  0.50  0.50  0.50  0.63  0.75  0.88  0.84  0.80  0.76  0.82  0.88  0.94  0.89  0.85  0.80  0.83  0.86  0.89  0.77  0.65  0.53  0.52  0.51
0.50  0.50  0.50  0.50  0.63  0.75  0.88  0.84  0.80  0.76  0.82  0.88  0.94  0.89  0.85  0.80  0.83  0.86  0.89  0.77  0.65  0.53  0.52  0.51
0.50  0.50  0.50  0.50  0.63  0.75  0.88  0.84  0.80  0.76  0.82  0.88  0.94  0.89  0.85  0.80  0.83  0.86  0.89  0.77  0.65  0.53  0.52  0.51
0.50  0.50  0.50  0.50  0.63  0.75  0.88  0.84  0.80  0.76  0.82  0.88  0.94  0.89  0.85  0.80  0.83  0.86  0.89  0.77  0.65  0.53  0.52  0.51
0.50  0.50  0.50  0.50  0.63  0.75  0.88  0.84  0.80  0.76  0.82  0.88  0.94  0.89  0.85  0.80  0.83  0.86  0.89  0.77  0.65  0.53  0.52  0.51
0.50  0.50  0.50  0.50  0.63  0.75  0.88  0.84  0.80  0.76  0.82  0.88  0.94  0.89  0.85  0.80  0.83  0.86  0.89  0.77  0.65  0.53  0.52  0.51
$ ilon ilat of the cell. lon: 8.2, 37.2
6   11
$ sizes of the cell in km
    70.931       80.301       93.977      113.773      105.092       97.616       88.956       97.616      105.092      113.773       93.977       80.301       70.931       80.301       93.977      113.773      105.092       97.616       88.956       97.616      105.092      113.773       93.977       80.301
$ mean alpha: 0.59375
$ mean beta: 0.724733980879
$alpha by ik, ith
0.50  0.50  0.50  0.50  0.63  0.75  0.88  0.75  0.62  0.50  0.50  0.50  0.50  0.50  0.50  0.50  0.62  0.75  0.88  0.75  0.63  0.50  0.50  0.50
0.50  0.50  0.50  0.50  0.63  0.75  0.88  0.75  0.62  0.50  0.50  0.50  0.50  0.50  0.50  0.50  0.62  0.75  0.88  0.75  0.63  0.50  0.50  0.50
0.50  0.50  0.50  0.50  0.63  0.75  0.88  0.75  0.62  0.50  0.50  0.50  0.50  0.50  0.50  0.50  0.62  0.75  0.88  0.75  0.63  0.50  0.50  0.50
0.50  0.50  0.50  0.50  0.63  0.75  0.88  0.75  0.62  0.50  0.50  0.50  0.50  0.50  0.50  0.50  0.62  0.75  0.88  0.75  0.63  0.50  0.50  0.50
0.50  0.50  0.50  0.50  0.63  0.75  0.88  0.75  0.62  0.50  0.50  0.50  0.50  0.50  0.50  0.50  0.62  0.75  0.88  0.75  0.63  0.50  0.50  0.50
0.50  0.50  0.50  0.50  0.63  0.75  0.88  0.75  0.62  0.50  0.50  0.50  0.50  0.50  0.50  0.50  0.62  0.75  0.88  0.75  0.63  0.50  0.50  0.50
0.50  0.50  0.50  0.50  0.63  0.75  0.88  0.75  0.62  0.50  0.50  0.50  0.50  0.50  0.50  0.50  0.62  0.75  0.88  0.75  0.63  0.50  0.50  0.50
0.50  0.50  0.50  0.50  0.63  0.75  0.88  0.75  0.62  0.50  0.50  0.50  0.50  0.50  0.50  0.50  0.62  0.75  0.88  0.75  0.63  0.50  0.50  0.50
0.50  0.50  0.50  0.50  0.63  0.75  0.88  0.75  0.62  0.50  0.50  0.50  0.50  0.50  0.50  0.50  0.62  0.75  0.88  0.75  0.63  0.50  0.50  0.50
0.50  0.50  0.50  0.50  0.63  0.75  0.88  0.75  0.62  0.50  0.50  0.50  0.50  0.50  0.50  0.50  0.62  0.75  0.88  0.75  0.63  0.50  0.50  0.50
0.50  0.50  0.50  0.50  0.63  0.75  0.88  0.75  0.62  0.50  0.50  0.50  0.50  0.50  0.50  0.50  0.62  0.75  0.88  0.75  0.63  0.50  0.50  0.50
0.50  0.50  0.50  0.50  0.63  0.75  0.88  0.75  0.62  0.50  0.50  0.50  0.50  0.50  0.50  0.50  0.62  0.75  0.88  0.75  0.63  0.50  0.50  0.50
0.50  0.50  0.50  0.50  0.63  0.75  0.88  0.75  0.62  0.50  0.50  0.50  0.50  0.50  0.50  0.50  0.62  0.75  0.88  0.75  0.63  0.50  0.50  0.50
0.50  0.50  0.50  0.50  0.63  0.75  0.88  0.75  0.62  0.50  0.50  0.50  0.50  0.50  0.50  0.50  0.62  0.75  0.88  0.75  0.63  0.50  0.50  0.50
0.50  0.50  0.50  0.50  0.63  0.75  0.88  0.75  0.62  0.50  0.50  0.50  0.50  0.50  0.50  0.50  0.62  0.75  0.88  0.75  0.63  0.50  0.50  0.50
0.50  0.50  0.50  0.50  0.63  0.75  0.88  0.75  0.62  0.50  0.50  0.50  0.50  0.50  0.50  0.50  0.62  0.75  0.88  0.75  0.63  0.50  0.50  0.50
0.50  0.50  0.50  0.50  0.63  0.75  0.88  0.75  0.62  0.50  0.50  0.50  0.50  0.50  0.50  0.50  0.62  0.75  0.88  0.75  0.63  0.50  0.50  0.50
0.50  0.50  0.50  0.50  0.63  0.75  0.88  0.75  0.62  0.50  0.50  0.50  0.50  0.50  0.50  0.50  0.62  0.75  0.88  0.75  0.63  0.50  0.50  0.50
0.50  0.50  0.50  0.50  0.63  0.75  0.88  0.75  0.62  0.50  0.50  0.50  0.50  0.50  0.50  0.50  0.62  0.75  0.88  0.75  0.63  0.50  0.50  0.50
0.50  0.50  0.50  0.50  0.63  0.75  0.88  0.75  0.62  0.50  0.50  0.50  0.50  0.50  0.50  0.50  0.62  0.75  0.88  0.75  0.63  0.50  0.50  0.50
0.50  0.50  0.50  0.50  0.63  0.75  0.88  0.75  0.62  0.50  0.50  0.50  0.50  0.50  0.50  0.50  0.62  0.75  0.88  0.75  0.63  0.50  0.50  0.50
0.50  0.50  0.50  0.50  0.63  0.75  0.88  0.75  0.62  0.50  0.50  0.50  0.50  0.50  0.50  0.50  0.62  0.75  0.88  0.75  0.63  0.50  0.50  0.50
0.50  0.50  0.50  0.50  0.63  0.75  0.88  0.75  0.62  0.50  0.50  0.50  0.50  0.50  0.50  0.50  0.62  0.75  0.88  0.75  0.63  0.50  0.50  0.50
0.50  0.50  0.50  0.50  0.63  0.75  0.88  0.75  0.62  0.50  0.50  0.50  0.50  0.50  0.50  0.50  0.62  0.75  0.88  0.75  0.63  0.50  0.50  0.50
0.50  0.50  0.50  0.50  0.63  0.75  0.88  0.75  0.62  0.50  0.50  0.50  0.50  0.50  0.50  0.50  0.62  0.75  0.88  0.75  0.63  0.50  0.50  0.50
$beta by ik, ith
0.50  0.50  0.50  0.50  0.63  0.75  0.88  0.84  0.80  0.76  0.82  0.88  0.94  0.89  0.85  0.80  0.83  0.86  0.89  0.77  0.65  0.53  0.52  0.51
0.50  0.50  0.50  0.50  0.63  0.75  0.88  0.84  0.80  0.76  0.82  0.88  0.94  0.89  0.85  0.80  0.83  0.86  0.89  0.77  0.65  0.53  0.52  0.51
0.50  0.50  0.50  0.50  0.63  0.75  0.88  0.84  0.80  0.76  0.82  0.88  0.94  0.89  0.85  0.80  0.83  0.86  0.89  0.77  0.65  0.53  0.52  0.51
0.50  0.50  0.50  0.50  0.63  0.75  0.88  0.84  0.80  0.76  0.82  0.88  0.94  0.89  0.85  0.80  0.83  0.86  0.89  0.77  0.65  0.53  0.52  0.51
0.50  0.50  0.50  0.50  0.63  0.75  0.88  0.84  0.80  0.76  0.82  0.88  0.94  0.89  0.85  0.80  0.83  0.86  0.89  0.77  0.65  0.53  0.52  0.51
0.50  0.50  0.50  0.50  0.63  0.75  0.88  0.84  0.80  0.76  0.82  0.88  0.94  0.89  0.85  0.80  0.83  0.86  0.89  0.77  0.65  0.53  0.52  0.51
0.50  0.50  0.50  0.50  0.63  0.75  0.88  0.84  0.80  0.76  0.82  0.88  0.94  0.89  0.85  0.80  0.83  0.86  0.89  0.77  0.65  0.53  0.52  0.51
0.50  0.50  0.50  0.50  0.63  0.75  0.88  0.84  0.80  0.76  0.82  0.88  0.94  0.89  0.85  0.80  0.83  0.86  0.89  0.77  0.65  0.53  0.52  0.51
0.50  0.50  0.50  0.50  0.63  0.75  0.88  0.84  0.80  0.76  0.82  0.88  0.94  0.89  0.85  0.80  0.83  0.86  0.89  0.77  0.65  0.53  0.52  0.51
0.50  0.50  0.50  0.50  0.63  0.75  0.88  0.84  0.80  0.76  0.82  0.88  0.94  0.89  0.85  0.80  0.83  0.86  0.89  0.77  0.65  0.53  0.52  0.51
0.50  0.50  0.50  0.50  0.63  0.75  0.88  0.84  0.80  0.76  0.82  0.88  0.94  0.89  0.85  0.80  0.83  0.86  0.89  0.77  0.65  0.53  0.52  0.51
0.50  0.50  0.50  0.50  0.63  0.75  0.88  0.84  0.80  0.76  0.82  0.88  0.94  0.89  0.85  0.80  0.83  0.86  0.89  0.77  0.65  0.53  0.52  0.51
0.50  0.50  0.50  0.50  0.63  0.75  0.88  0.84  0.80  0.76  0.82  0.88  0.94  0.89  0.85  0.80  0.83  0.86  0.89  0.77  0.65  0.53  0.52  0.51
0.50  0.50  0.50  0.50  0.63  0.75  0.88  0.84  0.80  0.76  0.82  0.88  0.94  0.89  0.85  0.80  0.83  0.86  0.89  0.77  0.65  0.53  0.52  0.51
0.50  0.50  0.50  0.50  0.63  0.75  0.88  0.84  0.80  0.76  0.82  0.88  0.94  0.89  0.85  0.80  0.83  0.86  0.89  0.77  0.65  0.53  0.52  0.51
0.50  0.50  0.50  0.50  0.63  0.75  0.88  0.84  0.80  0.76  0.82  0.88  0.94  0.89  0.85  0.80  0.83  0.86  0.89  0.77  0.65  0.53  0.52  0.51
0.50  0.50  0.50  0.50  0.63  0.75  0.88  0.84  0.80  0.76  0.82  0.88  0.94  0.89  0.85  0.80  0.83  0.86  0.89  0.77  0.65  0.53  0.52  0.51
0.50  0.50  0.50  0.50  0.63  0.75  0.88  0.84  0.80  0.76  0.82  0.88  0.94  0.89  0.85  0.80  0.83  0.86  0.89  0.77  0.65  0.53  0.52  0.51
0.50  0.50  0.50  0.50  0.63  0.75  0.88  0.84  0.80  0.76  0.82  0.88  0.94  0.89  0.85  0.80  0.83  0.86  0.89  0.77  0.65  0.53  0.52  0.51
0.50  0.50  0.50  0.50  0.63  0.75  0.88  0.84  0.80  0.76  0.82  0.88  0.94  0.89  0.85  0.80  0.83  0.86  0.89  0.77  0.65  0.53  0.52  0.51
0.50  0.50  0.50  0.50  0.63  0.75  0.88  0.84  0.80  0.76  0.82  0.88  0.94  0.89  0.85  0.80  0.83  0.86  0.89  0.77  0.65  0.53  0.52  0.51
0.50  0.50  0.50  0.50  0.63  0.75  0.88  0.84  0.80  0.76  0.82  0.88  0.94  0.89  0.85  0.80  0.83  0.86  0.89  0.77  0.65  0.53  0.52  0.51
0.50  0.50  0.50  0.50  0.63  0.75  0.88  0.84  0.80  0.76  0.82  0.88  0.94  0.89  0.85  0.80  0.83  0.86  0.89  0.77  0.65  0.53  0.52  0.51
0.50  0.50  0.50  0.50  0.63  0.75  0.88  0.84  0.80  0.76  0.82  0.88  0.94  0.89  0.85  0.80  0.83  0.86  0.89  0.77  0.65  0.53  0.52  0.51
0.50  0.50  0.50  0.50  0.63  0.75  0.88  0.84  0.80  0.76  0.82  0.88  0.94  0.89  0.85  0.80  0.83  0.86  0.89  0.77  0.65  0.53  0.52  0.51
