$WAVEWATCH III SHADOW OBSTRUCTIONS
36
$ ilon ilat of the cell. lon: 7.4, 29.2
5   1
$ sizes of the cell in km
    77.712       87.230       99.962      118.120      106.917       98.042       88.956       98.042      106.917      118.120       99.962       87.230       77.712       87.230       99.962      118.120      106.917       98.042       88.956       98.042      106.917      118.120       99.962       87.230
$ mean alpha: 0.962507328428
$ mean beta: 0.973076923077
$alpha by ik, ith
1.00  1.00  1.00  1.00  1.00  1.00  1.00  1.00  1.00  1.00  1.00  1.00  1.00  0.90  0.80  0.70  0.80  0.90  1.00  1.00  1.00  1.00  1.00  1.00
1.00  1.00  1.00  1.00  1.00  1.00  1.00  1.00  1.00  1.00  1.00  1.00  1.00  0.90  0.80  0.70  0.80  0.90  1.00  1.00  1.00  1.00  1.00  1.00
1.00  1.00  1.00  1.00  1.00  1.00  1.00  1.00  1.00  1.00  1.00  1.00  1.00  0.90  0.80  0.70  0.80  0.90  1.00  1.00  1.00  1.00  1.00  1.00
1.00  1.00  1.00  1.00  1.00  1.00  1.00  1.00  1.00  1.00  1.00  1.00  1.00  0.90  0.80  0.70  0.80  0.90  1.00  1.00  1.00  1.00  1.00  1.00
1.00  1.00  1.00  1.00  1.00  1.00  1.00  1.00  1.00  1.00  1.00  1.00  1.00  0.90  0.80  0.70  0.80  0.90  1.00  1.00  1.00  1.00  1.00  1.00
1.00  1.00  1.00  1.00  1.00  1.00  1.00  1.00  1.00  1.00  1.00  1.00  1.00  0.90  0.80  0.70  0.80  0.90  1.00  1.00  1.00  1.00  1.00  1.00
1.00  1.00  1.00  1.00  1.00  1.00  1.00  1.00  1.00  1.00  1.00  1.00  1.00  0.90  0.80  0.70  0.80  0.90  1.00  1.00  1.00  1.00  1.00  1.00
1.00  1.00  1.00  1.00  1.00  1.00  1.00  1.00  1.00  1.00  1.00  1.00  1.00  0.90  0.80  0.70  0.80  0.90  1.00  1.00  1.00  1.00  1.00  1.00
1.00  1.00  1.00  1.00  1.00  1.00  1.00  1.00  1.00  1.00  1.00  1.00  1.00  0.90  0.80  0.70  0.80  0.90  1.00  1.00  1.00  1.00  1.00  1.00
1.00  1.00  1.00  1.00  1.00  1.00  1.00  1.00  1.00  1.00  1.00  1.00  1.00  0.90  0.80  0.70  0.80  0.90  1.00  1.00  1.00  1.00  1.00  1.00
1.00  1.00  1.00  1.00  1.00  1.00  1.00  1.00  1.00  1.00  1.00  1.00  1.00  0.90  0.80  0.70  0.80  0.90  1.00  1.00  1.00  1.00  1.00  1.00
1.00  1.00  1.00  1.00  1.00  1.00  1.00  1.00  1.00  1.00  1.00  1.00  1.00  0.90  0.80  0.70  0.80  0.90  1.00  1.00  1.00  1.00  1.00  1.00
1.00  1.00  1.00  1.00  1.00  1.00  1.00  1.00  1.00  1.00  1.00  1.00  1.00  0.90  0.80  0.70  0.80  0.90  1.00  1.00  1.00  1.00  1.00  1.00
1.00  1.00  1.00  1.00  1.00  1.00  1.00  1.00  1.00  1.00  1.00  1.00  1.00  0.90  0.80  0.70  0.80  0.90  1.00  1.00  1.00  1.00  1.00  1.00
1.00  1.00  1.00  1.00  1.00  1.00  1.00  1.00  1.00  1.00  1.00  1.00  1.00  0.90  0.80  0.70  0.80  0.90  1.00  1.00  1.00  1.00  1.00  1.00
1.00  1.00  1.00  1.00  1.00  1.00  1.00  1.00  1.00  1.00  1.00  1.00  1.00  0.90  0.80  0.70  0.80  0.90  1.00  1.00  1.00  1.00  1.00  1.00
1.00  1.00  1.00  1.00  1.00  1.00  1.00  1.00  1.00  1.00  1.00  1.00  1.00  0.90  0.80  0.70  0.80  0.90  1.00  1.00  1.00  1.00  1.00  1.00
1.00  1.00  1.00  1.00  1.00  1.00  1.00  1.00  1.00  1.00  1.00  1.00  1.00  0.90  0.80  0.70  0.80  0.90  1.00  1.00  1.00  1.00  1.00  1.00
1.00  1.00  1.00  1.00  1.00  1.00  1.00  1.00  1.00  1.00  1.00  1.00  1.00  0.90  0.80  0.70  0.80  0.90  1.00  1.00  1.00  1.00  1.00  1.00
1.00  1.00  1.00  1.00  1.00  1.00  1.00  1.00  1.00  1.00  1.00  1.00  1.00  0.90  0.80  0.70  0.80  0.90  1.00  1.00  1.00  1.00  1.00  1.00
1.00  1.00  1.00  1.00  1.00  1.00  1.00  1.00  1.00  1.00  1.00  1.00  1.00  0.90  0.80  0.70  0.80  0.90  1.00  1.00  1.00  1.00  1.00  1.00
1.00  1.00  1.00  1.00  1.00  1.00  1.00  1.00  1.00  1.00  1.00  1.00  1.00  0.90  0.80  0.70  0.80  0.90  1.00  1.00  1.00  1.00  1.00  1.00
1.00  1.00  1.00  1.00  1.00  1.00  1.00  1.00  1.00  1.00  1.00  1.00  1.00  0.90  0.80  0.70  0.80  0.90  1.00  1.00  1.00  1.00  1.00  1.00
1.00  1.00  1.00  1.00  1.00  1.00  1.00  1.00  1.00  1.00  1.00  1.00  1.00  0.90  0.80  0.70  0.80  0.90  1.00  1.00  1.00  1.00  1.00  1.00
1.00  1.00  1.00  1.00  1.00  1.00  1.00  1.00  1.00  1.00  1.00  1.00  1.00  0.90  0.80  0.70  0.80  0.90  1.00  1.00  1.00  1.00  1.00  1.00
$beta by ik, ith
1.00  1.00  1.00  1.00  1.00  1.00  1.00  1.00  1.00  1.00  1.00  1.00  1.00  0.93  0.86  0.78  0.86  0.93  1.00  1.00  1.00  1.00  1.00  1.00
1.00  1.00  1.00  1.00  1.00  1.00  1.00  1.00  1.00  1.00  1.00  1.00  1.00  0.93  0.86  0.78  0.86  0.93  1.00  1.00  1.00  1.00  1.00  1.00
1.00  1.00  1.00  1.00  1.00  1.00  1.00  1.00  1.00  1.00  1.00  1.00  1.00  0.93  0.86  0.78  0.86  0.93  1.00  1.00  1.00  1.00  1.00  1.00
1.00  1.00  1.00  1.00  1.00  1.00  1.00  1.00  1.00  1.00  1.00  1.00  1.00  0.93  0.86  0.78  0.86  0.93  1.00  1.00  1.00  1.00  1.00  1.00
1.00  1.00  1.00  1.00  1.00  1.00  1.00  1.00  1.00  1.00  1.00  1.00  1.00  0.93  0.86  0.78  0.86  0.93  1.00  1.00  1.00  1.00  1.00  1.00
1.00  1.00  1.00  1.00  1.00  1.00  1.00  1.00  1.00  1.00  1.00  1.00  1.00  0.93  0.86  0.78  0.86  0.93  1.00  1.00  1.00  1.00  1.00  1.00
1.00  1.00  1.00  1.00  1.00  1.00  1.00  1.00  1.00  1.00  1.00  1.00  1.00  0.93  0.86  0.78  0.86  0.93  1.00  1.00  1.00  1.00  1.00  1.00
1.00  1.00  1.00  1.00  1.00  1.00  1.00  1.00  1.00  1.00  1.00  1.00  1.00  0.93  0.86  0.78  0.86  0.93  1.00  1.00  1.00  1.00  1.00  1.00
1.00  1.00  1.00  1.00  1.00  1.00  1.00  1.00  1.00  1.00  1.00  1.00  1.00  0.93  0.86  0.78  0.86  0.93  1.00  1.00  1.00  1.00  1.00  1.00
1.00  1.00  1.00  1.00  1.00  1.00  1.00  1.00  1.00  1.00  1.00  1.00  1.00  0.93  0.86  0.78  0.86  0.93  1.00  1.00  1.00  1.00  1.00  1.00
1.00  1.00  1.00  1.00  1.00  1.00  1.00  1.00  1.00  1.00  1.00  1.00  1.00  0.93  0.86  0.78  0.86  0.93  1.00  1.00  1.00  1.00  1.00  1.00
1.00  1.00  1.00  1.00  1.00  1.00  1.00  1.00  1.00  1.00  1.00  1.00  1.00  0.93  0.86  0.78  0.86  0.93  1.00  1.00  1.00  1.00  1.00  1.00
1.00  1.00  1.00  1.00  1.00  1.00  1.00  1.00  1.00  1.00  1.00  1.00  1.00  0.93  0.86  0.78  0.86  0.93  1.00  1.00  1.00  1.00  1.00  1.00
1.00  1.00  1.00  1.00  1.00  1.00  1.00  1.00  1.00  1.00  1.00  1.00  1.00  0.93  0.86  0.78  0.86  0.93  1.00  1.00  1.00  1.00  1.00  1.00
1.00  1.00  1.00  1.00  1.00  1.00  1.00  1.00  1.00  1.00  1.00  1.00  1.00  0.93  0.86  0.78  0.86  0.93  1.00  1.00  1.00  1.00  1.00  1.00
1.00  1.00  1.00  1.00  1.00  1.00  1.00  1.00  1.00  1.00  1.00  1.00  1.00  0.93  0.86  0.78  0.86  0.93  1.00  1.00  1.00  1.00  1.00  1.00
1.00  1.00  1.00  1.00  1.00  1.00  1.00  1.00  1.00  1.00  1.00  1.00  1.00  0.93  0.86  0.78  0.86  0.93  1.00  1.00  1.00  1.00  1.00  1.00
1.00  1.00  1.00  1.00  1.00  1.00  1.00  1.00  1.00  1.00  1.00  1.00  1.00  0.93  0.86  0.78  0.86  0.93  1.00  1.00  1.00  1.00  1.00  1.00
1.00  1.00  1.00  1.00  1.00  1.00  1.00  1.00  1.00  1.00  1.00  1.00  1.00  0.93  0.86  0.78  0.86  0.93  1.00  1.00  1.00  1.00  1.00  1.00
1.00  1.00  1.00  1.00  1.00  1.00  1.00  1.00  1.00  1.00  1.00  1.00  1.00  0.93  0.86  0.78  0.86  0.93  1.00  1.00  1.00  1.00  1.00  1.00
1.00  1.00  1.00  1.00  1.00  1.00  1.00  1.00  1.00  1.00  1.00  1.00  1.00  0.93  0.86  0.78  0.86  0.93  1.00  1.00  1.00  1.00  1.00  1.00
1.00  1.00  1.00  1.00  1.00  1.00  1.00  1.00  1.00  1.00  1.00  1.00  1.00  0.93  0.86  0.78  0.86  0.93  1.00  1.00  1.00  1.00  1.00  1.00
1.00  1.00  1.00  1.00  1.00  1.00  1.00  1.00  1.00  1.00  1.00  1.00  1.00  0.93  0.86  0.78  0.86  0.93  1.00  1.00  1.00  1.00  1.00  1.00
1.00  1.00  1.00  1.00  1.00  1.00  1.00  1.00  1.00  1.00  1.00  1.00  1.00  0.93  0.86  0.78  0.86  0.93  1.00  1.00  1.00  1.00  1.00  1.00
1.00  1.00  1.00  1.00  1.00  1.00  1.00  1.00  1.00  1.00  1.00  1.00  1.00  0.93  0.86  0.78  0.86  0.93  1.00  1.00  1.00  1.00  1.00  1.00
$ ilon ilat of the cell. lon: 7.4, 30.0
5   2
$ sizes of the cell in km
    77.100       86.602       99.415      117.718      106.746       98.002       88.956       98.002      106.746      117.718       99.415       86.602       77.100       86.602       99.415      117.718      106.746       98.002       88.956       98.002      106.746      117.718       99.415       86.602
$ mean alpha: 0.817209341618
$ mean beta: 0.926850961538
$alpha by ik, ith
1.00  1.00  1.00  1.00  1.00  1.00  1.00  0.90  0.80  0.70  0.70  0.70  0.70  0.51  0.33  0.14  0.43  0.71  1.00  1.00  1.00  1.00  1.00  1.00
1.00  1.00  1.00  1.00  1.00  1.00  1.00  0.90  0.80  0.70  0.70  0.70  0.70  0.51  0.33  0.14  0.43  0.71  1.00  1.00  1.00  1.00  1.00  1.00
1.00  1.00  1.00  1.00  1.00  1.00  1.00  0.90  0.80  0.70  0.70  0.70  0.70  0.51  0.33  0.14  0.43  0.71  1.00  1.00  1.00  1.00  1.00  1.00
1.00  1.00  1.00  1.00  1.00  1.00  1.00  0.90  0.80  0.70  0.70  0.70  0.70  0.51  0.33  0.14  0.43  0.71  1.00  1.00  1.00  1.00  1.00  1.00
1.00  1.00  1.00  1.00  1.00  1.00  1.00  0.90  0.80  0.70  0.70  0.70  0.70  0.51  0.33  0.14  0.43  0.71  1.00  1.00  1.00  1.00  1.00  1.00
1.00  1.00  1.00  1.00  1.00  1.00  1.00  0.90  0.80  0.70  0.70  0.70  0.70  0.51  0.33  0.14  0.43  0.71  1.00  1.00  1.00  1.00  1.00  1.00
1.00  1.00  1.00  1.00  1.00  1.00  1.00  0.90  0.80  0.70  0.70  0.70  0.70  0.51  0.33  0.14  0.43  0.71  1.00  1.00  1.00  1.00  1.00  1.00
1.00  1.00  1.00  1.00  1.00  1.00  1.00  0.90  0.80  0.70  0.70  0.70  0.70  0.51  0.33  0.14  0.43  0.71  1.00  1.00  1.00  1.00  1.00  1.00
1.00  1.00  1.00  1.00  1.00  1.00  1.00  0.90  0.80  0.70  0.70  0.70  0.70  0.51  0.33  0.14  0.43  0.71  1.00  1.00  1.00  1.00  1.00  1.00
1.00  1.00  1.00  1.00  1.00  1.00  1.00  0.90  0.80  0.70  0.70  0.70  0.70  0.51  0.33  0.14  0.43  0.71  1.00  1.00  1.00  1.00  1.00  1.00
1.00  1.00  1.00  1.00  1.00  1.00  1.00  0.90  0.80  0.70  0.70  0.70  0.70  0.51  0.33  0.14  0.43  0.71  1.00  1.00  1.00  1.00  1.00  1.00
1.00  1.00  1.00  1.00  1.00  1.00  1.00  0.90  0.80  0.70  0.70  0.70  0.70  0.51  0.33  0.14  0.43  0.71  1.00  1.00  1.00  1.00  1.00  1.00
1.00  1.00  1.00  1.00  1.00  1.00  1.00  0.90  0.80  0.70  0.70  0.70  0.70  0.51  0.33  0.14  0.43  0.71  1.00  1.00  1.00  1.00  1.00  1.00
1.00  1.00  1.00  1.00  1.00  1.00  1.00  0.90  0.80  0.70  0.70  0.70  0.70  0.51  0.33  0.14  0.43  0.71  1.00  1.00  1.00  1.00  1.00  1.00
1.00  1.00  1.00  1.00  1.00  1.00  1.00  0.90  0.80  0.70  0.70  0.70  0.70  0.51  0.33  0.14  0.43  0.71  1.00  1.00  1.00  1.00  1.00  1.00
1.00  1.00  1.00  1.00  1.00  1.00  1.00  0.90  0.80  0.70  0.70  0.70  0.70  0.51  0.33  0.14  0.43  0.71  1.00  1.00  1.00  1.00  1.00  1.00
1.00  1.00  1.00  1.00  1.00  1.00  1.00  0.90  0.80  0.70  0.70  0.70  0.70  0.51  0.33  0.14  0.43  0.71  1.00  1.00  1.00  1.00  1.00  1.00
1.00  1.00  1.00  1.00  1.00  1.00  1.00  0.90  0.80  0.70  0.70  0.70  0.70  0.51  0.33  0.14  0.43  0.71  1.00  1.00  1.00  1.00  1.00  1.00
1.00  1.00  1.00  1.00  1.00  1.00  1.00  0.90  0.80  0.70  0.70  0.70  0.70  0.51  0.33  0.14  0.43  0.71  1.00  1.00  1.00  1.00  1.00  1.00
1.00  1.00  1.00  1.00  1.00  1.00  1.00  0.90  0.80  0.70  0.70  0.70  0.70  0.51  0.33  0.14  0.43  0.71  1.00  1.00  1.00  1.00  1.00  1.00
1.00  1.00  1.00  1.00  1.00  1.00  1.00  0.90  0.80  0.70  0.70  0.70  0.70  0.51  0.33  0.14  0.43  0.71  1.00  1.00  1.00  1.00  1.00  1.00
1.00  1.00  1.00  1.00  1.00  1.00  1.00  0.90  0.80  0.70  0.70  0.70  0.70  0.51  0.33  0.14  0.43  0.71  1.00  1.00  1.00  1.00  1.00  1.00
1.00  1.00  1.00  1.00  1.00  1.00  1.00  0.90  0.80  0.70  0.70  0.70  0.70  0.51  0.33  0.14  0.43  0.71  1.00  1.00  1.00  1.00  1.00  1.00
1.00  1.00  1.00  1.00  1.00  1.00  1.00  0.90  0.80  0.70  0.70  0.70  0.70  0.51  0.33  0.14  0.43  0.71  1.00  1.00  1.00  1.00  1.00  1.00
1.00  1.00  1.00  1.00  1.00  1.00  1.00  0.90  0.80  0.70  0.70  0.70  0.70  0.51  0.33  0.14  0.43  0.71  1.00  1.00  1.00  1.00  1.00  1.00
$beta by ik, ith
1.00  1.00  1.00  1.00  1.00  1.00  1.00  0.98  0.96  0.94  0.95  0.95  0.96  0.81  0.66  0.51  0.68  0.84  1.00  1.00  1.00  1.00  1.00  1.00
1.00  1.00  1.00  1.00  1.00  1.00  1.00  0.98  0.96  0.94  0.95  0.95  0.96  0.81  0.66  0.51  0.68  0.84  1.00  1.00  1.00  1.00  1.00  1.00
1.00  1.00  1.00  1.00  1.00  1.00  1.00  0.98  0.96  0.94  0.95  0.95  0.96  0.81  0.66  0.51  0.68  0.84  1.00  1.00  1.00  1.00  1.00  1.00
1.00  1.00  1.00  1.00  1.00  1.00  1.00  0.98  0.96  0.94  0.95  0.95  0.96  0.81  0.66  0.51  0.68  0.84  1.00  1.00  1.00  1.00  1.00  1.00
1.00  1.00  1.00  1.00  1.00  1.00  1.00  0.98  0.96  0.94  0.95  0.95  0.96  0.81  0.66  0.51  0.68  0.84  1.00  1.00  1.00  1.00  1.00  1.00
1.00  1.00  1.00  1.00  1.00  1.00  1.00  0.98  0.96  0.94  0.95  0.95  0.96  0.81  0.66  0.51  0.68  0.84  1.00  1.00  1.00  1.00  1.00  1.00
1.00  1.00  1.00  1.00  1.00  1.00  1.00  0.98  0.96  0.94  0.95  0.95  0.96  0.81  0.66  0.51  0.68  0.84  1.00  1.00  1.00  1.00  1.00  1.00
1.00  1.00  1.00  1.00  1.00  1.00  1.00  0.98  0.96  0.94  0.95  0.95  0.96  0.81  0.66  0.51  0.68  0.84  1.00  1.00  1.00  1.00  1.00  1.00
1.00  1.00  1.00  1.00  1.00  1.00  1.00  0.98  0.96  0.94  0.95  0.95  0.96  0.81  0.66  0.51  0.68  0.84  1.00  1.00  1.00  1.00  1.00  1.00
1.00  1.00  1.00  1.00  1.00  1.00  1.00  0.98  0.96  0.94  0.95  0.95  0.96  0.81  0.66  0.51  0.68  0.84  1.00  1.00  1.00  1.00  1.00  1.00
1.00  1.00  1.00  1.00  1.00  1.00  1.00  0.98  0.96  0.94  0.95  0.95  0.96  0.81  0.66  0.51  0.68  0.84  1.00  1.00  1.00  1.00  1.00  1.00
1.00  1.00  1.00  1.00  1.00  1.00  1.00  0.98  0.96  0.94  0.95  0.95  0.96  0.81  0.66  0.51  0.68  0.84  1.00  1.00  1.00  1.00  1.00  1.00
1.00  1.00  1.00  1.00  1.00  1.00  1.00  0.98  0.96  0.94  0.95  0.95  0.96  0.81  0.66  0.51  0.68  0.84  1.00  1.00  1.00  1.00  1.00  1.00
1.00  1.00  1.00  1.00  1.00  1.00  1.00  0.98  0.96  0.94  0.95  0.95  0.96  0.81  0.66  0.51  0.68  0.84  1.00  1.00  1.00  1.00  1.00  1.00
1.00  1.00  1.00  1.00  1.00  1.00  1.00  0.98  0.96  0.94  0.95  0.95  0.96  0.81  0.66  0.51  0.68  0.84  1.00  1.00  1.00  1.00  1.00  1.00
1.00  1.00  1.00  1.00  1.00  1.00  1.00  0.98  0.96  0.94  0.95  0.95  0.96  0.81  0.66  0.51  0.68  0.84  1.00  1.00  1.00  1.00  1.00  1.00
1.00  1.00  1.00  1.00  1.00  1.00  1.00  0.98  0.96  0.94  0.95  0.95  0.96  0.81  0.66  0.51  0.68  0.84  1.00  1.00  1.00  1.00  1.00  1.00
1.00  1.00  1.00  1.00  1.00  1.00  1.00  0.98  0.96  0.94  0.95  0.95  0.96  0.81  0.66  0.51  0.68  0.84  1.00  1.00  1.00  1.00  1.00  1.00
1.00  1.00  1.00  1.00  1.00  1.00  1.00  0.98  0.96  0.94  0.95  0.95  0.96  0.81  0.66  0.51  0.68  0.84  1.00  1.00  1.00  1.00  1.00  1.00
1.00  1.00  1.00  1.00  1.00  1.00  1.00  0.98  0.96  0.94  0.95  0.95  0.96  0.81  0.66  0.51  0.68  0.84  1.00  1.00  1.00  1.00  1.00  1.00
1.00  1.00  1.00  1.00  1.00  1.00  1.00  0.98  0.96  0.94  0.95  0.95  0.96  0.81  0.66  0.51  0.68  0.84  1.00  1.00  1.00  1.00  1.00  1.00
1.00  1.00  1.00  1.00  1.00  1.00  1.00  0.98  0.96  0.94  0.95  0.95  0.96  0.81  0.66  0.51  0.68  0.84  1.00  1.00  1.00  1.00  1.00  1.00
1.00  1.00  1.00  1.00  1.00  1.00  1.00  0.98  0.96  0.94  0.95  0.95  0.96  0.81  0.66  0.51  0.68  0.84  1.00  1.00  1.00  1.00  1.00  1.00
1.00  1.00  1.00  1.00  1.00  1.00  1.00  0.98  0.96  0.94  0.95  0.95  0.96  0.81  0.66  0.51  0.68  0.84  1.00  1.00  1.00  1.00  1.00  1.00
1.00  1.00  1.00  1.00  1.00  1.00  1.00  0.98  0.96  0.94  0.95  0.95  0.96  0.81  0.66  0.51  0.68  0.84  1.00  1.00  1.00  1.00  1.00  1.00
$ ilon ilat of the cell. lon: 7.4, 30.8
5   3
$ sizes of the cell in km
    76.473       85.960       98.856      117.309      106.573       97.961       88.956       97.961      106.573      117.309       98.856       85.960       76.473       85.960       98.856      117.309      106.573       97.961       88.956       97.961      106.573      117.309       98.856       85.960
$ mean alpha: 0.692626975072
$ mean beta: 0.878701923077
$alpha by ik, ith
1.00  1.00  1.00  1.00  1.00  1.00  1.00  0.71  0.43  0.14  0.23  0.31  0.40  0.27  0.13  0.00  0.33  0.67  1.00  1.00  1.00  1.00  1.00  1.00
1.00  1.00  1.00  1.00  1.00  1.00  1.00  0.71  0.43  0.14  0.23  0.31  0.40  0.27  0.13  0.00  0.33  0.67  1.00  1.00  1.00  1.00  1.00  1.00
1.00  1.00  1.00  1.00  1.00  1.00  1.00  0.71  0.43  0.14  0.23  0.31  0.40  0.27  0.13  0.00  0.33  0.67  1.00  1.00  1.00  1.00  1.00  1.00
1.00  1.00  1.00  1.00  1.00  1.00  1.00  0.71  0.43  0.14  0.23  0.31  0.40  0.27  0.13  0.00  0.33  0.67  1.00  1.00  1.00  1.00  1.00  1.00
1.00  1.00  1.00  1.00  1.00  1.00  1.00  0.71  0.43  0.14  0.23  0.31  0.40  0.27  0.13  0.00  0.33  0.67  1.00  1.00  1.00  1.00  1.00  1.00
1.00  1.00  1.00  1.00  1.00  1.00  1.00  0.71  0.43  0.14  0.23  0.31  0.40  0.27  0.13  0.00  0.33  0.67  1.00  1.00  1.00  1.00  1.00  1.00
1.00  1.00  1.00  1.00  1.00  1.00  1.00  0.71  0.43  0.14  0.23  0.31  0.40  0.27  0.13  0.00  0.33  0.67  1.00  1.00  1.00  1.00  1.00  1.00
1.00  1.00  1.00  1.00  1.00  1.00  1.00  0.71  0.43  0.14  0.23  0.31  0.40  0.27  0.13  0.00  0.33  0.67  1.00  1.00  1.00  1.00  1.00  1.00
1.00  1.00  1.00  1.00  1.00  1.00  1.00  0.71  0.43  0.14  0.23  0.31  0.40  0.27  0.13  0.00  0.33  0.67  1.00  1.00  1.00  1.00  1.00  1.00
1.00  1.00  1.00  1.00  1.00  1.00  1.00  0.71  0.43  0.14  0.23  0.31  0.40  0.27  0.13  0.00  0.33  0.67  1.00  1.00  1.00  1.00  1.00  1.00
1.00  1.00  1.00  1.00  1.00  1.00  1.00  0.71  0.43  0.14  0.23  0.31  0.40  0.27  0.13  0.00  0.33  0.67  1.00  1.00  1.00  1.00  1.00  1.00
1.00  1.00  1.00  1.00  1.00  1.00  1.00  0.71  0.43  0.14  0.23  0.31  0.40  0.27  0.13  0.00  0.33  0.67  1.00  1.00  1.00  1.00  1.00  1.00
1.00  1.00  1.00  1.00  1.00  1.00  1.00  0.71  0.43  0.14  0.23  0.31  0.40  0.27  0.13  0.00  0.33  0.67  1.00  1.00  1.00  1.00  1.00  1.00
1.00  1.00  1.00  1.00  1.00  1.00  1.00  0.71  0.43  0.14  0.23  0.31  0.40  0.27  0.13  0.00  0.33  0.67  1.00  1.00  1.00  1.00  1.00  1.00
1.00  1.00  1.00  1.00  1.00  1.00  1.00  0.71  0.43  0.14  0.23  0.31  0.40  0.27  0.13  0.00  0.33  0.67  1.00  1.00  1.00  1.00  1.00  1.00
1.00  1.00  1.00  1.00  1.00  1.00  1.00  0.71  0.43  0.14  0.23  0.31  0.40  0.27  0.13  0.00  0.33  0.67  1.00  1.00  1.00  1.00  1.00  1.00
1.00  1.00  1.00  1.00  1.00  1.00  1.00  0.71  0.43  0.14  0.23  0.31  0.40  0.27  0.13  0.00  0.33  0.67  1.00  1.00  1.00  1.00  1.00  1.00
1.00  1.00  1.00  1.00  1.00  1.00  1.00  0.71  0.43  0.14  0.23  0.31  0.40  0.27  0.13  0.00  0.33  0.67  1.00  1.00  1.00  1.00  1.00  1.00
1.00  1.00  1.00  1.00  1.00  1.00  1.00  0.71  0.43  0.14  0.23  0.31  0.40  0.27  0.13  0.00  0.33  0.67  1.00  1.00  1.00  1.00  1.00  1.00
1.00  1.00  1.00  1.00  1.00  1.00  1.00  0.71  0.43  0.14  0.23  0.31  0.40  0.27  0.13  0.00  0.33  0.67  1.00  1.00  1.00  1.00  1.00  1.00
1.00  1.00  1.00  1.00  1.00  1.00  1.00  0.71  0.43  0.14  0.23  0.31  0.40  0.27  0.13  0.00  0.33  0.67  1.00  1.00  1.00  1.00  1.00  1.00
1.00  1.00  1.00  1.00  1.00  1.00  1.00  0.71  0.43  0.14  0.23  0.31  0.40  0.27  0.13  0.00  0.33  0.67  1.00  1.00  1.00  1.00  1.00  1.00
1.00  1.00  1.00  1.00  1.00  1.00  1.00  0.71  0.43  0.14  0.23  0.31  0.40  0.27  0.13  0.00  0.33  0.67  1.00  1.00  1.00  1.00  1.00  1.00
1.00  1.00  1.00  1.00  1.00  1.00  1.00  0.71  0.43  0.14  0.23  0.31  0.40  0.27  0.13  0.00  0.33  0.67  1.00  1.00  1.00  1.00  1.00  1.00
1.00  1.00  1.00  1.00  1.00  1.00  1.00  0.71  0.43  0.14  0.23  0.31  0.40  0.27  0.13  0.00  0.33  0.67  1.00  1.00  1.00  1.00  1.00  1.00
$beta by ik, ith
1.00  1.00  1.00  1.00  1.00  1.00  1.00  0.88  0.76  0.64  0.73  0.83  0.93  0.77  0.62  0.47  0.65  0.82  1.00  1.00  1.00  1.00  1.00  1.00
1.00  1.00  1.00  1.00  1.00  1.00  1.00  0.88  0.76  0.64  0.73  0.83  0.93  0.77  0.62  0.47  0.65  0.82  1.00  1.00  1.00  1.00  1.00  1.00
1.00  1.00  1.00  1.00  1.00  1.00  1.00  0.88  0.76  0.64  0.73  0.83  0.93  0.77  0.62  0.47  0.65  0.82  1.00  1.00  1.00  1.00  1.00  1.00
1.00  1.00  1.00  1.00  1.00  1.00  1.00  0.88  0.76  0.64  0.73  0.83  0.93  0.77  0.62  0.47  0.65  0.82  1.00  1.00  1.00  1.00  1.00  1.00
1.00  1.00  1.00  1.00  1.00  1.00  1.00  0.88  0.76  0.64  0.73  0.83  0.93  0.77  0.62  0.47  0.65  0.82  1.00  1.00  1.00  1.00  1.00  1.00
1.00  1.00  1.00  1.00  1.00  1.00  1.00  0.88  0.76  0.64  0.73  0.83  0.93  0.77  0.62  0.47  0.65  0.82  1.00  1.00  1.00  1.00  1.00  1.00
1.00  1.00  1.00  1.00  1.00  1.00  1.00  0.88  0.76  0.64  0.73  0.83  0.93  0.77  0.62  0.47  0.65  0.82  1.00  1.00  1.00  1.00  1.00  1.00
1.00  1.00  1.00  1.00  1.00  1.00  1.00  0.88  0.76  0.64  0.73  0.83  0.93  0.77  0.62  0.47  0.65  0.82  1.00  1.00  1.00  1.00  1.00  1.00
1.00  1.00  1.00  1.00  1.00  1.00  1.00  0.88  0.76  0.64  0.73  0.83  0.93  0.77  0.62  0.47  0.65  0.82  1.00  1.00  1.00  1.00  1.00  1.00
1.00  1.00  1.00  1.00  1.00  1.00  1.00  0.88  0.76  0.64  0.73  0.83  0.93  0.77  0.62  0.47  0.65  0.82  1.00  1.00  1.00  1.00  1.00  1.00
1.00  1.00  1.00  1.00  1.00  1.00  1.00  0.88  0.76  0.64  0.73  0.83  0.93  0.77  0.62  0.47  0.65  0.82  1.00  1.00  1.00  1.00  1.00  1.00
1.00  1.00  1.00  1.00  1.00  1.00  1.00  0.88  0.76  0.64  0.73  0.83  0.93  0.77  0.62  0.47  0.65  0.82  1.00  1.00  1.00  1.00  1.00  1.00
1.00  1.00  1.00  1.00  1.00  1.00  1.00  0.88  0.76  0.64  0.73  0.83  0.93  0.77  0.62  0.47  0.65  0.82  1.00  1.00  1.00  1.00  1.00  1.00
1.00  1.00  1.00  1.00  1.00  1.00  1.00  0.88  0.76  0.64  0.73  0.83  0.93  0.77  0.62  0.47  0.65  0.82  1.00  1.00  1.00  1.00  1.00  1.00
1.00  1.00  1.00  1.00  1.00  1.00  1.00  0.88  0.76  0.64  0.73  0.83  0.93  0.77  0.62  0.47  0.65  0.82  1.00  1.00  1.00  1.00  1.00  1.00
1.00  1.00  1.00  1.00  1.00  1.00  1.00  0.88  0.76  0.64  0.73  0.83  0.93  0.77  0.62  0.47  0.65  0.82  1.00  1.00  1.00  1.00  1.00  1.00
1.00  1.00  1.00  1.00  1.00  1.00  1.00  0.88  0.76  0.64  0.73  0.83  0.93  0.77  0.62  0.47  0.65  0.82  1.00  1.00  1.00  1.00  1.00  1.00
1.00  1.00  1.00  1.00  1.00  1.00  1.00  0.88  0.76  0.64  0.73  0.83  0.93  0.77  0.62  0.47  0.65  0.82  1.00  1.00  1.00  1.00  1.00  1.00
1.00  1.00  1.00  1.00  1.00  1.00  1.00  0.88  0.76  0.64  0.73  0.83  0.93  0.77  0.62  0.47  0.65  0.82  1.00  1.00  1.00  1.00  1.00  1.00
1.00  1.00  1.00  1.00  1.00  1.00  1.00  0.88  0.76  0.64  0.73  0.83  0.93  0.77  0.62  0.47  0.65  0.82  1.00  1.00  1.00  1.00  1.00  1.00
1.00  1.00  1.00  1.00  1.00  1.00  1.00  0.88  0.76  0.64  0.73  0.83  0.93  0.77  0.62  0.47  0.65  0.82  1.00  1.00  1.00  1.00  1.00  1.00
1.00  1.00  1.00  1.00  1.00  1.00  1.00  0.88  0.76  0.64  0.73  0.83  0.93  0.77  0.62  0.47  0.65  0.82  1.00  1.00  1.00  1.00  1.00  1.00
1.00  1.00  1.00  1.00  1.00  1.00  1.00  0.88  0.76  0.64  0.73  0.83  0.93  0.77  0.62  0.47  0.65  0.82  1.00  1.00  1.00  1.00  1.00  1.00
1.00  1.00  1.00  1.00  1.00  1.00  1.00  0.88  0.76  0.64  0.73  0.83  0.93  0.77  0.62  0.47  0.65  0.82  1.00  1.00  1.00  1.00  1.00  1.00
1.00  1.00  1.00  1.00  1.00  1.00  1.00  0.88  0.76  0.64  0.73  0.83  0.93  0.77  0.62  0.47  0.65  0.82  1.00  1.00  1.00  1.00  1.00  1.00
$ ilon ilat of the cell. lon: 7.4, 31.6
5   4
$ sizes of the cell in km
    75.831       85.302       98.284      116.891      106.397       97.920       88.956       97.920      106.397      116.891       98.284       85.302       75.831       85.302       98.284      116.891      106.397       97.920       88.956       97.920      106.397      116.891       98.284       85.302
$ mean alpha: 0.675432290309
$ mean beta: 0.850138927977
$alpha by ik, ith
1.00  1.00  1.00  1.00  1.00  1.00  1.00  0.67  0.33  0.00  0.13  0.27  0.40  0.27  0.13  0.00  0.33  0.67  1.00  1.00  1.00  1.00  1.00  1.00
1.00  1.00  1.00  1.00  1.00  1.00  1.00  0.67  0.33  0.00  0.13  0.27  0.40  0.27  0.13  0.00  0.33  0.67  1.00  1.00  1.00  1.00  1.00  1.00
1.00  1.00  1.00  1.00  1.00  1.00  1.00  0.67  0.33  0.00  0.13  0.27  0.40  0.27  0.13  0.00  0.33  0.67  1.00  1.00  1.00  1.00  1.00  1.00
1.00  1.00  1.00  1.00  1.00  1.00  1.00  0.67  0.33  0.00  0.13  0.27  0.40  0.27  0.13  0.00  0.33  0.67  1.00  1.00  1.00  1.00  1.00  1.00
1.00  1.00  1.00  1.00  1.00  1.00  1.00  0.67  0.33  0.00  0.13  0.27  0.40  0.27  0.13  0.00  0.33  0.67  1.00  1.00  1.00  1.00  1.00  1.00
1.00  1.00  1.00  1.00  1.00  1.00  1.00  0.67  0.33  0.00  0.13  0.27  0.40  0.27  0.13  0.00  0.33  0.67  1.00  1.00  1.00  1.00  1.00  1.00
1.00  1.00  1.00  1.00  1.00  1.00  1.00  0.67  0.33  0.00  0.13  0.27  0.40  0.27  0.13  0.00  0.33  0.67  1.00  1.00  1.00  1.00  1.00  1.00
1.00  1.00  1.00  1.00  1.00  1.00  1.00  0.67  0.33  0.00  0.13  0.27  0.40  0.27  0.13  0.00  0.33  0.67  1.00  1.00  1.00  1.00  1.00  1.00
1.00  1.00  1.00  1.00  1.00  1.00  1.00  0.67  0.33  0.00  0.13  0.27  0.40  0.27  0.13  0.00  0.33  0.67  1.00  1.00  1.00  1.00  1.00  1.00
1.00  1.00  1.00  1.00  1.00  1.00  1.00  0.67  0.33  0.00  0.13  0.27  0.40  0.27  0.13  0.00  0.33  0.67  1.00  1.00  1.00  1.00  1.00  1.00
1.00  1.00  1.00  1.00  1.00  1.00  1.00  0.67  0.33  0.00  0.13  0.27  0.40  0.27  0.13  0.00  0.33  0.67  1.00  1.00  1.00  1.00  1.00  1.00
1.00  1.00  1.00  1.00  1.00  1.00  1.00  0.67  0.33  0.00  0.13  0.27  0.40  0.27  0.13  0.00  0.33  0.67  1.00  1.00  1.00  1.00  1.00  1.00
1.00  1.00  1.00  1.00  1.00  1.00  1.00  0.67  0.33  0.00  0.13  0.27  0.40  0.27  0.13  0.00  0.33  0.67  1.00  1.00  1.00  1.00  1.00  1.00
1.00  1.00  1.00  1.00  1.00  1.00  1.00  0.67  0.33  0.00  0.13  0.27  0.40  0.27  0.13  0.00  0.33  0.67  1.00  1.00  1.00  1.00  1.00  1.00
1.00  1.00  1.00  1.00  1.00  1.00  1.00  0.67  0.33  0.00  0.13  0.27  0.40  0.27  0.13  0.00  0.33  0.67  1.00  1.00  1.00  1.00  1.00  1.00
1.00  1.00  1.00  1.00  1.00  1.00  1.00  0.67  0.33  0.00  0.13  0.27  0.40  0.27  0.13  0.00  0.33  0.67  1.00  1.00  1.00  1.00  1.00  1.00
1.00  1.00  1.00  1.00  1.00  1.00  1.00  0.67  0.33  0.00  0.13  0.27  0.40  0.27  0.13  0.00  0.33  0.67  1.00  1.00  1.00  1.00  1.00  1.00
1.00  1.00  1.00  1.00  1.00  1.00  1.00  0.67  0.33  0.00  0.13  0.27  0.40  0.27  0.13  0.00  0.33  0.67  1.00  1.00  1.00  1.00  1.00  1.00
1.00  1.00  1.00  1.00  1.00  1.00  1.00  0.67  0.33  0.00  0.13  0.27  0.40  0.27  0.13  0.00  0.33  0.67  1.00  1.00  1.00  1.00  1.00  1.00
1.00  1.00  1.00  1.00  1.00  1.00  1.00  0.67  0.33  0.00  0.13  0.27  0.40  0.27  0.13  0.00  0.33  0.67  1.00  1.00  1.00  1.00  1.00  1.00
1.00  1.00  1.00  1.00  1.00  1.00  1.00  0.67  0.33  0.00  0.13  0.27  0.40  0.27  0.13  0.00  0.33  0.67  1.00  1.00  1.00  1.00  1.00  1.00
1.00  1.00  1.00  1.00  1.00  1.00  1.00  0.67  0.33  0.00  0.13  0.27  0.40  0.27  0.13  0.00  0.33  0.67  1.00  1.00  1.00  1.00  1.00  1.00
1.00  1.00  1.00  1.00  1.00  1.00  1.00  0.67  0.33  0.00  0.13  0.27  0.40  0.27  0.13  0.00  0.33  0.67  1.00  1.00  1.00  1.00  1.00  1.00
1.00  1.00  1.00  1.00  1.00  1.00  1.00  0.67  0.33  0.00  0.13  0.27  0.40  0.27  0.13  0.00  0.33  0.67  1.00  1.00  1.00  1.00  1.00  1.00
1.00  1.00  1.00  1.00  1.00  1.00  1.00  0.67  0.33  0.00  0.13  0.27  0.40  0.27  0.13  0.00  0.33  0.67  1.00  1.00  1.00  1.00  1.00  1.00
$beta by ik, ith
1.00  1.00  1.00  1.00  1.00  1.00  1.00  0.80  0.61  0.41  0.58  0.75  0.93  0.77  0.62  0.47  0.65  0.82  1.00  1.00  1.00  1.00  1.00  1.00
1.00  1.00  1.00  1.00  1.00  1.00  1.00  0.80  0.61  0.41  0.58  0.75  0.93  0.77  0.62  0.47  0.65  0.82  1.00  1.00  1.00  1.00  1.00  1.00
1.00  1.00  1.00  1.00  1.00  1.00  1.00  0.80  0.61  0.41  0.58  0.75  0.93  0.77  0.62  0.47  0.65  0.82  1.00  1.00  1.00  1.00  1.00  1.00
1.00  1.00  1.00  1.00  1.00  1.00  1.00  0.80  0.61  0.41  0.58  0.75  0.93  0.77  0.62  0.47  0.65  0.82  1.00  1.00  1.00  1.00  1.00  1.00
1.00  1.00  1.00  1.00  1.00  1.00  1.00  0.80  0.61  0.41  0.58  0.75  0.93  0.77  0.62  0.47  0.65  0.82  1.00  1.00  1.00  1.00  1.00  1.00
1.00  1.00  1.00  1.00  1.00  1.00  1.00  0.80  0.61  0.41  0.58  0.75  0.93  0.77  0.62  0.47  0.65  0.82  1.00  1.00  1.00  1.00  1.00  1.00
1.00  1.00  1.00  1.00  1.00  1.00  1.00  0.80  0.61  0.41  0.58  0.75  0.93  0.77  0.62  0.47  0.65  0.82  1.00  1.00  1.00  1.00  1.00  1.00
1.00  1.00  1.00  1.00  1.00  1.00  1.00  0.80  0.61  0.41  0.58  0.75  0.93  0.77  0.62  0.47  0.65  0.82  1.00  1.00  1.00  1.00  1.00  1.00
1.00  1.00  1.00  1.00  1.00  1.00  1.00  0.80  0.61  0.41  0.58  0.75  0.93  0.77  0.62  0.47  0.65  0.82  1.00  1.00  1.00  1.00  1.00  1.00
1.00  1.00  1.00  1.00  1.00  1.00  1.00  0.80  0.61  0.41  0.58  0.75  0.93  0.77  0.62  0.47  0.65  0.82  1.00  1.00  1.00  1.00  1.00  1.00
1.00  1.00  1.00  1.00  1.00  1.00  1.00  0.80  0.61  0.41  0.58  0.75  0.93  0.77  0.62  0.47  0.65  0.82  1.00  1.00  1.00  1.00  1.00  1.00
1.00  1.00  1.00  1.00  1.00  1.00  1.00  0.80  0.61  0.41  0.58  0.75  0.93  0.77  0.62  0.47  0.65  0.82  1.00  1.00  1.00  1.00  1.00  1.00
1.00  1.00  1.00  1.00  1.00  1.00  1.00  0.80  0.61  0.41  0.58  0.75  0.93  0.77  0.62  0.47  0.65  0.82  1.00  1.00  1.00  1.00  1.00  1.00
1.00  1.00  1.00  1.00  1.00  1.00  1.00  0.80  0.61  0.41  0.58  0.75  0.93  0.77  0.62  0.47  0.65  0.82  1.00  1.00  1.00  1.00  1.00  1.00
1.00  1.00  1.00  1.00  1.00  1.00  1.00  0.80  0.61  0.41  0.58  0.75  0.93  0.77  0.62  0.47  0.65  0.82  1.00  1.00  1.00  1.00  1.00  1.00
1.00  1.00  1.00  1.00  1.00  1.00  1.00  0.80  0.61  0.41  0.58  0.75  0.93  0.77  0.62  0.47  0.65  0.82  1.00  1.00  1.00  1.00  1.00  1.00
1.00  1.00  1.00  1.00  1.00  1.00  1.00  0.80  0.61  0.41  0.58  0.75  0.93  0.77  0.62  0.47  0.65  0.82  1.00  1.00  1.00  1.00  1.00  1.00
1.00  1.00  1.00  1.00  1.00  1.00  1.00  0.80  0.61  0.41  0.58  0.75  0.93  0.77  0.62  0.47  0.65  0.82  1.00  1.00  1.00  1.00  1.00  1.00
1.00  1.00  1.00  1.00  1.00  1.00  1.00  0.80  0.61  0.41  0.58  0.75  0.93  0.77  0.62  0.47  0.65  0.82  1.00  1.00  1.00  1.00  1.00  1.00
1.00  1.00  1.00  1.00  1.00  1.00  1.00  0.80  0.61  0.41  0.58  0.75  0.93  0.77  0.62  0.47  0.65  0.82  1.00  1.00  1.00  1.00  1.00  1.00
1.00  1.00  1.00  1.00  1.00  1.00  1.00  0.80  0.61  0.41  0.58  0.75  0.93  0.77  0.62  0.47  0.65  0.82  1.00  1.00  1.00  1.00  1.00  1.00
1.00  1.00  1.00  1.00  1.00  1.00  1.00  0.80  0.61  0.41  0.58  0.75  0.93  0.77  0.62  0.47  0.65  0.82  1.00  1.00  1.00  1.00  1.00  1.00
1.00  1.00  1.00  1.00  1.00  1.00  1.00  0.80  0.61  0.41  0.58  0.75  0.93  0.77  0.62  0.47  0.65  0.82  1.00  1.00  1.00  1.00  1.00  1.00
1.00  1.00  1.00  1.00  1.00  1.00  1.00  0.80  0.61  0.41  0.58  0.75  0.93  0.77  0.62  0.47  0.65  0.82  1.00  1.00  1.00  1.00  1.00  1.00
1.00  1.00  1.00  1.00  1.00  1.00  1.00  0.80  0.61  0.41  0.58  0.75  0.93  0.77  0.62  0.47  0.65  0.82  1.00  1.00  1.00  1.00  1.00  1.00
$ ilon ilat of the cell. lon: 7.4, 32.4
5   5
$ sizes of the cell in km
    75.174       84.630       97.702      116.466      106.218       97.878       88.956       97.878      106.218      116.466       97.702       84.630       75.174       84.630       97.702      116.466      106.218       97.878       88.956       97.878      106.218      116.466       97.702       84.630
$ mean alpha: 0.675432290309
$ mean beta: 0.850138927977
$alpha by ik, ith
1.00  1.00  1.00  1.00  1.00  1.00  1.00  0.67  0.33  0.00  0.13  0.27  0.40  0.27  0.13  0.00  0.33  0.67  1.00  1.00  1.00  1.00  1.00  1.00
1.00  1.00  1.00  1.00  1.00  1.00  1.00  0.67  0.33  0.00  0.13  0.27  0.40  0.27  0.13  0.00  0.33  0.67  1.00  1.00  1.00  1.00  1.00  1.00
1.00  1.00  1.00  1.00  1.00  1.00  1.00  0.67  0.33  0.00  0.13  0.27  0.40  0.27  0.13  0.00  0.33  0.67  1.00  1.00  1.00  1.00  1.00  1.00
1.00  1.00  1.00  1.00  1.00  1.00  1.00  0.67  0.33  0.00  0.13  0.27  0.40  0.27  0.13  0.00  0.33  0.67  1.00  1.00  1.00  1.00  1.00  1.00
1.00  1.00  1.00  1.00  1.00  1.00  1.00  0.67  0.33  0.00  0.13  0.27  0.40  0.27  0.13  0.00  0.33  0.67  1.00  1.00  1.00  1.00  1.00  1.00
1.00  1.00  1.00  1.00  1.00  1.00  1.00  0.67  0.33  0.00  0.13  0.27  0.40  0.27  0.13  0.00  0.33  0.67  1.00  1.00  1.00  1.00  1.00  1.00
1.00  1.00  1.00  1.00  1.00  1.00  1.00  0.67  0.33  0.00  0.13  0.27  0.40  0.27  0.13  0.00  0.33  0.67  1.00  1.00  1.00  1.00  1.00  1.00
1.00  1.00  1.00  1.00  1.00  1.00  1.00  0.67  0.33  0.00  0.13  0.27  0.40  0.27  0.13  0.00  0.33  0.67  1.00  1.00  1.00  1.00  1.00  1.00
1.00  1.00  1.00  1.00  1.00  1.00  1.00  0.67  0.33  0.00  0.13  0.27  0.40  0.27  0.13  0.00  0.33  0.67  1.00  1.00  1.00  1.00  1.00  1.00
1.00  1.00  1.00  1.00  1.00  1.00  1.00  0.67  0.33  0.00  0.13  0.27  0.40  0.27  0.13  0.00  0.33  0.67  1.00  1.00  1.00  1.00  1.00  1.00
1.00  1.00  1.00  1.00  1.00  1.00  1.00  0.67  0.33  0.00  0.13  0.27  0.40  0.27  0.13  0.00  0.33  0.67  1.00  1.00  1.00  1.00  1.00  1.00
1.00  1.00  1.00  1.00  1.00  1.00  1.00  0.67  0.33  0.00  0.13  0.27  0.40  0.27  0.13  0.00  0.33  0.67  1.00  1.00  1.00  1.00  1.00  1.00
1.00  1.00  1.00  1.00  1.00  1.00  1.00  0.67  0.33  0.00  0.13  0.27  0.40  0.27  0.13  0.00  0.33  0.67  1.00  1.00  1.00  1.00  1.00  1.00
1.00  1.00  1.00  1.00  1.00  1.00  1.00  0.67  0.33  0.00  0.13  0.27  0.40  0.27  0.13  0.00  0.33  0.67  1.00  1.00  1.00  1.00  1.00  1.00
1.00  1.00  1.00  1.00  1.00  1.00  1.00  0.67  0.33  0.00  0.13  0.27  0.40  0.27  0.13  0.00  0.33  0.67  1.00  1.00  1.00  1.00  1.00  1.00
1.00  1.00  1.00  1.00  1.00  1.00  1.00  0.67  0.33  0.00  0.13  0.27  0.40  0.27  0.13  0.00  0.33  0.67  1.00  1.00  1.00  1.00  1.00  1.00
1.00  1.00  1.00  1.00  1.00  1.00  1.00  0.67  0.33  0.00  0.13  0.27  0.40  0.27  0.13  0.00  0.33  0.67  1.00  1.00  1.00  1.00  1.00  1.00
1.00  1.00  1.00  1.00  1.00  1.00  1.00  0.67  0.33  0.00  0.13  0.27  0.40  0.27  0.13  0.00  0.33  0.67  1.00  1.00  1.00  1.00  1.00  1.00
1.00  1.00  1.00  1.00  1.00  1.00  1.00  0.67  0.33  0.00  0.13  0.27  0.40  0.27  0.13  0.00  0.33  0.67  1.00  1.00  1.00  1.00  1.00  1.00
1.00  1.00  1.00  1.00  1.00  1.00  1.00  0.67  0.33  0.00  0.13  0.27  0.40  0.27  0.13  0.00  0.33  0.67  1.00  1.00  1.00  1.00  1.00  1.00
1.00  1.00  1.00  1.00  1.00  1.00  1.00  0.67  0.33  0.00  0.13  0.27  0.40  0.27  0.13  0.00  0.33  0.67  1.00  1.00  1.00  1.00  1.00  1.00
1.00  1.00  1.00  1.00  1.00  1.00  1.00  0.67  0.33  0.00  0.13  0.27  0.40  0.27  0.13  0.00  0.33  0.67  1.00  1.00  1.00  1.00  1.00  1.00
1.00  1.00  1.00  1.00  1.00  1.00  1.00  0.67  0.33  0.00  0.13  0.27  0.40  0.27  0.13  0.00  0.33  0.67  1.00  1.00  1.00  1.00  1.00  1.00
1.00  1.00  1.00  1.00  1.00  1.00  1.00  0.67  0.33  0.00  0.13  0.27  0.40  0.27  0.13  0.00  0.33  0.67  1.00  1.00  1.00  1.00  1.00  1.00
1.00  1.00  1.00  1.00  1.00  1.00  1.00  0.67  0.33  0.00  0.13  0.27  0.40  0.27  0.13  0.00  0.33  0.67  1.00  1.00  1.00  1.00  1.00  1.00
$beta by ik, ith
1.00  1.00  1.00  1.00  1.00  1.00  1.00  0.80  0.61  0.41  0.58  0.75  0.93  0.77  0.62  0.47  0.65  0.82  1.00  1.00  1.00  1.00  1.00  1.00
1.00  1.00  1.00  1.00  1.00  1.00  1.00  0.80  0.61  0.41  0.58  0.75  0.93  0.77  0.62  0.47  0.65  0.82  1.00  1.00  1.00  1.00  1.00  1.00
1.00  1.00  1.00  1.00  1.00  1.00  1.00  0.80  0.61  0.41  0.58  0.75  0.93  0.77  0.62  0.47  0.65  0.82  1.00  1.00  1.00  1.00  1.00  1.00
1.00  1.00  1.00  1.00  1.00  1.00  1.00  0.80  0.61  0.41  0.58  0.75  0.93  0.77  0.62  0.47  0.65  0.82  1.00  1.00  1.00  1.00  1.00  1.00
1.00  1.00  1.00  1.00  1.00  1.00  1.00  0.80  0.61  0.41  0.58  0.75  0.93  0.77  0.62  0.47  0.65  0.82  1.00  1.00  1.00  1.00  1.00  1.00
1.00  1.00  1.00  1.00  1.00  1.00  1.00  0.80  0.61  0.41  0.58  0.75  0.93  0.77  0.62  0.47  0.65  0.82  1.00  1.00  1.00  1.00  1.00  1.00
1.00  1.00  1.00  1.00  1.00  1.00  1.00  0.80  0.61  0.41  0.58  0.75  0.93  0.77  0.62  0.47  0.65  0.82  1.00  1.00  1.00  1.00  1.00  1.00
1.00  1.00  1.00  1.00  1.00  1.00  1.00  0.80  0.61  0.41  0.58  0.75  0.93  0.77  0.62  0.47  0.65  0.82  1.00  1.00  1.00  1.00  1.00  1.00
1.00  1.00  1.00  1.00  1.00  1.00  1.00  0.80  0.61  0.41  0.58  0.75  0.93  0.77  0.62  0.47  0.65  0.82  1.00  1.00  1.00  1.00  1.00  1.00
1.00  1.00  1.00  1.00  1.00  1.00  1.00  0.80  0.61  0.41  0.58  0.75  0.93  0.77  0.62  0.47  0.65  0.82  1.00  1.00  1.00  1.00  1.00  1.00
1.00  1.00  1.00  1.00  1.00  1.00  1.00  0.80  0.61  0.41  0.58  0.75  0.93  0.77  0.62  0.47  0.65  0.82  1.00  1.00  1.00  1.00  1.00  1.00
1.00  1.00  1.00  1.00  1.00  1.00  1.00  0.80  0.61  0.41  0.58  0.75  0.93  0.77  0.62  0.47  0.65  0.82  1.00  1.00  1.00  1.00  1.00  1.00
1.00  1.00  1.00  1.00  1.00  1.00  1.00  0.80  0.61  0.41  0.58  0.75  0.93  0.77  0.62  0.47  0.65  0.82  1.00  1.00  1.00  1.00  1.00  1.00
1.00  1.00  1.00  1.00  1.00  1.00  1.00  0.80  0.61  0.41  0.58  0.75  0.93  0.77  0.62  0.47  0.65  0.82  1.00  1.00  1.00  1.00  1.00  1.00
1.00  1.00  1.00  1.00  1.00  1.00  1.00  0.80  0.61  0.41  0.58  0.75  0.93  0.77  0.62  0.47  0.65  0.82  1.00  1.00  1.00  1.00  1.00  1.00
1.00  1.00  1.00  1.00  1.00  1.00  1.00  0.80  0.61  0.41  0.58  0.75  0.93  0.77  0.62  0.47  0.65  0.82  1.00  1.00  1.00  1.00  1.00  1.00
1.00  1.00  1.00  1.00  1.00  1.00  1.00  0.80  0.61  0.41  0.58  0.75  0.93  0.77  0.62  0.47  0.65  0.82  1.00  1.00  1.00  1.00  1.00  1.00
1.00  1.00  1.00  1.00  1.00  1.00  1.00  0.80  0.61  0.41  0.58  0.75  0.93  0.77  0.62  0.47  0.65  0.82  1.00  1.00  1.00  1.00  1.00  1.00
1.00  1.00  1.00  1.00  1.00  1.00  1.00  0.80  0.61  0.41  0.58  0.75  0.93  0.77  0.62  0.47  0.65  0.82  1.00  1.00  1.00  1.00  1.00  1.00
1.00  1.00  1.00  1.00  1.00  1.00  1.00  0.80  0.61  0.41  0.58  0.75  0.93  0.77  0.62  0.47  0.65  0.82  1.00  1.00  1.00  1.00  1.00  1.00
1.00  1.00  1.00  1.00  1.00  1.00  1.00  0.80  0.61  0.41  0.58  0.75  0.93  0.77  0.62  0.47  0.65  0.82  1.00  1.00  1.00  1.00  1.00  1.00
1.00  1.00  1.00  1.00  1.00  1.00  1.00  0.80  0.61  0.41  0.58  0.75  0.93  0.77  0.62  0.47  0.65  0.82  1.00  1.00  1.00  1.00  1.00  1.00
1.00  1.00  1.00  1.00  1.00  1.00  1.00  0.80  0.61  0.41  0.58  0.75  0.93  0.77  0.62  0.47  0.65  0.82  1.00  1.00  1.00  1.00  1.00  1.00
1.00  1.00  1.00  1.00  1.00  1.00  1.00  0.80  0.61  0.41  0.58  0.75  0.93  0.77  0.62  0.47  0.65  0.82  1.00  1.00  1.00  1.00  1.00  1.00
1.00  1.00  1.00  1.00  1.00  1.00  1.00  0.80  0.61  0.41  0.58  0.75  0.93  0.77  0.62  0.47  0.65  0.82  1.00  1.00  1.00  1.00  1.00  1.00
$ ilon ilat of the cell. lon: 7.4, 33.2
5   6
$ sizes of the cell in km
    74.503       83.944       97.108      116.034      106.036       97.836       88.956       97.836      106.036      116.034       97.108       83.944       74.503       83.944       97.108      116.034      106.036       97.836       88.956       97.836      106.036      116.034       97.108       83.944
$ mean alpha: 0.675432290309
$ mean beta: 0.850138927977
$alpha by ik, ith
1.00  1.00  1.00  1.00  1.00  1.00  1.00  0.67  0.33  0.00  0.13  0.27  0.40  0.27  0.13  0.00  0.33  0.67  1.00  1.00  1.00  1.00  1.00  1.00
1.00  1.00  1.00  1.00  1.00  1.00  1.00  0.67  0.33  0.00  0.13  0.27  0.40  0.27  0.13  0.00  0.33  0.67  1.00  1.00  1.00  1.00  1.00  1.00
1.00  1.00  1.00  1.00  1.00  1.00  1.00  0.67  0.33  0.00  0.13  0.27  0.40  0.27  0.13  0.00  0.33  0.67  1.00  1.00  1.00  1.00  1.00  1.00
1.00  1.00  1.00  1.00  1.00  1.00  1.00  0.67  0.33  0.00  0.13  0.27  0.40  0.27  0.13  0.00  0.33  0.67  1.00  1.00  1.00  1.00  1.00  1.00
1.00  1.00  1.00  1.00  1.00  1.00  1.00  0.67  0.33  0.00  0.13  0.27  0.40  0.27  0.13  0.00  0.33  0.67  1.00  1.00  1.00  1.00  1.00  1.00
1.00  1.00  1.00  1.00  1.00  1.00  1.00  0.67  0.33  0.00  0.13  0.27  0.40  0.27  0.13  0.00  0.33  0.67  1.00  1.00  1.00  1.00  1.00  1.00
1.00  1.00  1.00  1.00  1.00  1.00  1.00  0.67  0.33  0.00  0.13  0.27  0.40  0.27  0.13  0.00  0.33  0.67  1.00  1.00  1.00  1.00  1.00  1.00
1.00  1.00  1.00  1.00  1.00  1.00  1.00  0.67  0.33  0.00  0.13  0.27  0.40  0.27  0.13  0.00  0.33  0.67  1.00  1.00  1.00  1.00  1.00  1.00
1.00  1.00  1.00  1.00  1.00  1.00  1.00  0.67  0.33  0.00  0.13  0.27  0.40  0.27  0.13  0.00  0.33  0.67  1.00  1.00  1.00  1.00  1.00  1.00
1.00  1.00  1.00  1.00  1.00  1.00  1.00  0.67  0.33  0.00  0.13  0.27  0.40  0.27  0.13  0.00  0.33  0.67  1.00  1.00  1.00  1.00  1.00  1.00
1.00  1.00  1.00  1.00  1.00  1.00  1.00  0.67  0.33  0.00  0.13  0.27  0.40  0.27  0.13  0.00  0.33  0.67  1.00  1.00  1.00  1.00  1.00  1.00
1.00  1.00  1.00  1.00  1.00  1.00  1.00  0.67  0.33  0.00  0.13  0.27  0.40  0.27  0.13  0.00  0.33  0.67  1.00  1.00  1.00  1.00  1.00  1.00
1.00  1.00  1.00  1.00  1.00  1.00  1.00  0.67  0.33  0.00  0.13  0.27  0.40  0.27  0.13  0.00  0.33  0.67  1.00  1.00  1.00  1.00  1.00  1.00
1.00  1.00  1.00  1.00  1.00  1.00  1.00  0.67  0.33  0.00  0.13  0.27  0.40  0.27  0.13  0.00  0.33  0.67  1.00  1.00  1.00  1.00  1.00  1.00
1.00  1.00  1.00  1.00  1.00  1.00  1.00  0.67  0.33  0.00  0.13  0.27  0.40  0.27  0.13  0.00  0.33  0.67  1.00  1.00  1.00  1.00  1.00  1.00
1.00  1.00  1.00  1.00  1.00  1.00  1.00  0.67  0.33  0.00  0.13  0.27  0.40  0.27  0.13  0.00  0.33  0.67  1.00  1.00  1.00  1.00  1.00  1.00
1.00  1.00  1.00  1.00  1.00  1.00  1.00  0.67  0.33  0.00  0.13  0.27  0.40  0.27  0.13  0.00  0.33  0.67  1.00  1.00  1.00  1.00  1.00  1.00
1.00  1.00  1.00  1.00  1.00  1.00  1.00  0.67  0.33  0.00  0.13  0.27  0.40  0.27  0.13  0.00  0.33  0.67  1.00  1.00  1.00  1.00  1.00  1.00
1.00  1.00  1.00  1.00  1.00  1.00  1.00  0.67  0.33  0.00  0.13  0.27  0.40  0.27  0.13  0.00  0.33  0.67  1.00  1.00  1.00  1.00  1.00  1.00
1.00  1.00  1.00  1.00  1.00  1.00  1.00  0.67  0.33  0.00  0.13  0.27  0.40  0.27  0.13  0.00  0.33  0.67  1.00  1.00  1.00  1.00  1.00  1.00
1.00  1.00  1.00  1.00  1.00  1.00  1.00  0.67  0.33  0.00  0.13  0.27  0.40  0.27  0.13  0.00  0.33  0.67  1.00  1.00  1.00  1.00  1.00  1.00
1.00  1.00  1.00  1.00  1.00  1.00  1.00  0.67  0.33  0.00  0.13  0.27  0.40  0.27  0.13  0.00  0.33  0.67  1.00  1.00  1.00  1.00  1.00  1.00
1.00  1.00  1.00  1.00  1.00  1.00  1.00  0.67  0.33  0.00  0.13  0.27  0.40  0.27  0.13  0.00  0.33  0.67  1.00  1.00  1.00  1.00  1.00  1.00
1.00  1.00  1.00  1.00  1.00  1.00  1.00  0.67  0.33  0.00  0.13  0.27  0.40  0.27  0.13  0.00  0.33  0.67  1.00  1.00  1.00  1.00  1.00  1.00
1.00  1.00  1.00  1.00  1.00  1.00  1.00  0.67  0.33  0.00  0.13  0.27  0.40  0.27  0.13  0.00  0.33  0.67  1.00  1.00  1.00  1.00  1.00  1.00
$beta by ik, ith
1.00  1.00  1.00  1.00  1.00  1.00  1.00  0.80  0.61  0.41  0.58  0.75  0.92  0.77  0.62  0.47  0.65  0.82  1.00  1.00  1.00  1.00  1.00  1.00
1.00  1.00  1.00  1.00  1.00  1.00  1.00  0.80  0.61  0.41  0.58  0.75  0.92  0.77  0.62  0.47  0.65  0.82  1.00  1.00  1.00  1.00  1.00  1.00
1.00  1.00  1.00  1.00  1.00  1.00  1.00  0.80  0.61  0.41  0.58  0.75  0.92  0.77  0.62  0.47  0.65  0.82  1.00  1.00  1.00  1.00  1.00  1.00
1.00  1.00  1.00  1.00  1.00  1.00  1.00  0.80  0.61  0.41  0.58  0.75  0.92  0.77  0.62  0.47  0.65  0.82  1.00  1.00  1.00  1.00  1.00  1.00
1.00  1.00  1.00  1.00  1.00  1.00  1.00  0.80  0.61  0.41  0.58  0.75  0.92  0.77  0.62  0.47  0.65  0.82  1.00  1.00  1.00  1.00  1.00  1.00
1.00  1.00  1.00  1.00  1.00  1.00  1.00  0.80  0.61  0.41  0.58  0.75  0.92  0.77  0.62  0.47  0.65  0.82  1.00  1.00  1.00  1.00  1.00  1.00
1.00  1.00  1.00  1.00  1.00  1.00  1.00  0.80  0.61  0.41  0.58  0.75  0.92  0.77  0.62  0.47  0.65  0.82  1.00  1.00  1.00  1.00  1.00  1.00
1.00  1.00  1.00  1.00  1.00  1.00  1.00  0.80  0.61  0.41  0.58  0.75  0.92  0.77  0.62  0.47  0.65  0.82  1.00  1.00  1.00  1.00  1.00  1.00
1.00  1.00  1.00  1.00  1.00  1.00  1.00  0.80  0.61  0.41  0.58  0.75  0.92  0.77  0.62  0.47  0.65  0.82  1.00  1.00  1.00  1.00  1.00  1.00
1.00  1.00  1.00  1.00  1.00  1.00  1.00  0.80  0.61  0.41  0.58  0.75  0.92  0.77  0.62  0.47  0.65  0.82  1.00  1.00  1.00  1.00  1.00  1.00
1.00  1.00  1.00  1.00  1.00  1.00  1.00  0.80  0.61  0.41  0.58  0.75  0.92  0.77  0.62  0.47  0.65  0.82  1.00  1.00  1.00  1.00  1.00  1.00
1.00  1.00  1.00  1.00  1.00  1.00  1.00  0.80  0.61  0.41  0.58  0.75  0.92  0.77  0.62  0.47  0.65  0.82  1.00  1.00  1.00  1.00  1.00  1.00
1.00  1.00  1.00  1.00  1.00  1.00  1.00  0.80  0.61  0.41  0.58  0.75  0.92  0.77  0.62  0.47  0.65  0.82  1.00  1.00  1.00  1.00  1.00  1.00
1.00  1.00  1.00  1.00  1.00  1.00  1.00  0.80  0.61  0.41  0.58  0.75  0.92  0.77  0.62  0.47  0.65  0.82  1.00  1.00  1.00  1.00  1.00  1.00
1.00  1.00  1.00  1.00  1.00  1.00  1.00  0.80  0.61  0.41  0.58  0.75  0.92  0.77  0.62  0.47  0.65  0.82  1.00  1.00  1.00  1.00  1.00  1.00
1.00  1.00  1.00  1.00  1.00  1.00  1.00  0.80  0.61  0.41  0.58  0.75  0.92  0.77  0.62  0.47  0.65  0.82  1.00  1.00  1.00  1.00  1.00  1.00
1.00  1.00  1.00  1.00  1.00  1.00  1.00  0.80  0.61  0.41  0.58  0.75  0.92  0.77  0.62  0.47  0.65  0.82  1.00  1.00  1.00  1.00  1.00  1.00
1.00  1.00  1.00  1.00  1.00  1.00  1.00  0.80  0.61  0.41  0.58  0.75  0.92  0.77  0.62  0.47  0.65  0.82  1.00  1.00  1.00  1.00  1.00  1.00
1.00  1.00  1.00  1.00  1.00  1.00  1.00  0.80  0.61  0.41  0.58  0.75  0.92  0.77  0.62  0.47  0.65  0.82  1.00  1.00  1.00  1.00  1.00  1.00
1.00  1.00  1.00  1.00  1.00  1.00  1.00  0.80  0.61  0.41  0.58  0.75  0.92  0.77  0.62  0.47  0.65  0.82  1.00  1.00  1.00  1.00  1.00  1.00
1.00  1.00  1.00  1.00  1.00  1.00  1.00  0.80  0.61  0.41  0.58  0.75  0.92  0.77  0.62  0.47  0.65  0.82  1.00  1.00  1.00  1.00  1.00  1.00
1.00  1.00  1.00  1.00  1.00  1.00  1.00  0.80  0.61  0.41  0.58  0.75  0.92  0.77  0.62  0.47  0.65  0.82  1.00  1.00  1.00  1.00  1.00  1.00
1.00  1.00  1.00  1.00  1.00  1.00  1.00  0.80  0.61  0.41  0.58  0.75  0.92  0.77  0.62  0.47  0.65  0.82  1.00  1.00  1.00  1.00  1.00  1.00
1.00  1.00  1.00  1.00  1.00  1.00  1.00  0.80  0.61  0.41  0.58  0.75  0.92  0.77  0.62  0.47  0.65  0.82  1.00  1.00  1.00  1.00  1.00  1.00
1.00  1.00  1.00  1.00  1.00  1.00  1.00  0.80  0.61  0.41  0.58  0.75  0.92  0.77  0.62  0.47  0.65  0.82  1.00  1.00  1.00  1.00  1.00  1.00
$ ilon ilat of the cell. lon: 7.4, 34.0
5   7
$ sizes of the cell in km
    73.817       83.243       96.503      115.595      105.852       97.793       88.956       97.793      105.852      115.595       96.503       83.243       73.817       83.243       96.503      115.595      105.852       97.793       88.956       97.793      105.852      115.595       96.503       83.243
$ mean alpha: 0.675432290309
$ mean beta: 0.850138927977
$alpha by ik, ith
1.00  1.00  1.00  1.00  1.00  1.00  1.00  0.67  0.33  0.00  0.13  0.27  0.40  0.27  0.13  0.00  0.33  0.67  1.00  1.00  1.00  1.00  1.00  1.00
1.00  1.00  1.00  1.00  1.00  1.00  1.00  0.67  0.33  0.00  0.13  0.27  0.40  0.27  0.13  0.00  0.33  0.67  1.00  1.00  1.00  1.00  1.00  1.00
1.00  1.00  1.00  1.00  1.00  1.00  1.00  0.67  0.33  0.00  0.13  0.27  0.40  0.27  0.13  0.00  0.33  0.67  1.00  1.00  1.00  1.00  1.00  1.00
1.00  1.00  1.00  1.00  1.00  1.00  1.00  0.67  0.33  0.00  0.13  0.27  0.40  0.27  0.13  0.00  0.33  0.67  1.00  1.00  1.00  1.00  1.00  1.00
1.00  1.00  1.00  1.00  1.00  1.00  1.00  0.67  0.33  0.00  0.13  0.27  0.40  0.27  0.13  0.00  0.33  0.67  1.00  1.00  1.00  1.00  1.00  1.00
1.00  1.00  1.00  1.00  1.00  1.00  1.00  0.67  0.33  0.00  0.13  0.27  0.40  0.27  0.13  0.00  0.33  0.67  1.00  1.00  1.00  1.00  1.00  1.00
1.00  1.00  1.00  1.00  1.00  1.00  1.00  0.67  0.33  0.00  0.13  0.27  0.40  0.27  0.13  0.00  0.33  0.67  1.00  1.00  1.00  1.00  1.00  1.00
1.00  1.00  1.00  1.00  1.00  1.00  1.00  0.67  0.33  0.00  0.13  0.27  0.40  0.27  0.13  0.00  0.33  0.67  1.00  1.00  1.00  1.00  1.00  1.00
1.00  1.00  1.00  1.00  1.00  1.00  1.00  0.67  0.33  0.00  0.13  0.27  0.40  0.27  0.13  0.00  0.33  0.67  1.00  1.00  1.00  1.00  1.00  1.00
1.00  1.00  1.00  1.00  1.00  1.00  1.00  0.67  0.33  0.00  0.13  0.27  0.40  0.27  0.13  0.00  0.33  0.67  1.00  1.00  1.00  1.00  1.00  1.00
1.00  1.00  1.00  1.00  1.00  1.00  1.00  0.67  0.33  0.00  0.13  0.27  0.40  0.27  0.13  0.00  0.33  0.67  1.00  1.00  1.00  1.00  1.00  1.00
1.00  1.00  1.00  1.00  1.00  1.00  1.00  0.67  0.33  0.00  0.13  0.27  0.40  0.27  0.13  0.00  0.33  0.67  1.00  1.00  1.00  1.00  1.00  1.00
1.00  1.00  1.00  1.00  1.00  1.00  1.00  0.67  0.33  0.00  0.13  0.27  0.40  0.27  0.13  0.00  0.33  0.67  1.00  1.00  1.00  1.00  1.00  1.00
1.00  1.00  1.00  1.00  1.00  1.00  1.00  0.67  0.33  0.00  0.13  0.27  0.40  0.27  0.13  0.00  0.33  0.67  1.00  1.00  1.00  1.00  1.00  1.00
1.00  1.00  1.00  1.00  1.00  1.00  1.00  0.67  0.33  0.00  0.13  0.27  0.40  0.27  0.13  0.00  0.33  0.67  1.00  1.00  1.00  1.00  1.00  1.00
1.00  1.00  1.00  1.00  1.00  1.00  1.00  0.67  0.33  0.00  0.13  0.27  0.40  0.27  0.13  0.00  0.33  0.67  1.00  1.00  1.00  1.00  1.00  1.00
1.00  1.00  1.00  1.00  1.00  1.00  1.00  0.67  0.33  0.00  0.13  0.27  0.40  0.27  0.13  0.00  0.33  0.67  1.00  1.00  1.00  1.00  1.00  1.00
1.00  1.00  1.00  1.00  1.00  1.00  1.00  0.67  0.33  0.00  0.13  0.27  0.40  0.27  0.13  0.00  0.33  0.67  1.00  1.00  1.00  1.00  1.00  1.00
1.00  1.00  1.00  1.00  1.00  1.00  1.00  0.67  0.33  0.00  0.13  0.27  0.40  0.27  0.13  0.00  0.33  0.67  1.00  1.00  1.00  1.00  1.00  1.00
1.00  1.00  1.00  1.00  1.00  1.00  1.00  0.67  0.33  0.00  0.13  0.27  0.40  0.27  0.13  0.00  0.33  0.67  1.00  1.00  1.00  1.00  1.00  1.00
1.00  1.00  1.00  1.00  1.00  1.00  1.00  0.67  0.33  0.00  0.13  0.27  0.40  0.27  0.13  0.00  0.33  0.67  1.00  1.00  1.00  1.00  1.00  1.00
1.00  1.00  1.00  1.00  1.00  1.00  1.00  0.67  0.33  0.00  0.13  0.27  0.40  0.27  0.13  0.00  0.33  0.67  1.00  1.00  1.00  1.00  1.00  1.00
1.00  1.00  1.00  1.00  1.00  1.00  1.00  0.67  0.33  0.00  0.13  0.27  0.40  0.27  0.13  0.00  0.33  0.67  1.00  1.00  1.00  1.00  1.00  1.00
1.00  1.00  1.00  1.00  1.00  1.00  1.00  0.67  0.33  0.00  0.13  0.27  0.40  0.27  0.13  0.00  0.33  0.67  1.00  1.00  1.00  1.00  1.00  1.00
1.00  1.00  1.00  1.00  1.00  1.00  1.00  0.67  0.33  0.00  0.13  0.27  0.40  0.27  0.13  0.00  0.33  0.67  1.00  1.00  1.00  1.00  1.00  1.00
$beta by ik, ith
1.00  1.00  1.00  1.00  1.00  1.00  1.00  0.80  0.61  0.41  0.58  0.75  0.93  0.77  0.62  0.47  0.65  0.82  1.00  1.00  1.00  1.00  1.00  1.00
1.00  1.00  1.00  1.00  1.00  1.00  1.00  0.80  0.61  0.41  0.58  0.75  0.93  0.77  0.62  0.47  0.65  0.82  1.00  1.00  1.00  1.00  1.00  1.00
1.00  1.00  1.00  1.00  1.00  1.00  1.00  0.80  0.61  0.41  0.58  0.75  0.93  0.77  0.62  0.47  0.65  0.82  1.00  1.00  1.00  1.00  1.00  1.00
1.00  1.00  1.00  1.00  1.00  1.00  1.00  0.80  0.61  0.41  0.58  0.75  0.93  0.77  0.62  0.47  0.65  0.82  1.00  1.00  1.00  1.00  1.00  1.00
1.00  1.00  1.00  1.00  1.00  1.00  1.00  0.80  0.61  0.41  0.58  0.75  0.93  0.77  0.62  0.47  0.65  0.82  1.00  1.00  1.00  1.00  1.00  1.00
1.00  1.00  1.00  1.00  1.00  1.00  1.00  0.80  0.61  0.41  0.58  0.75  0.93  0.77  0.62  0.47  0.65  0.82  1.00  1.00  1.00  1.00  1.00  1.00
1.00  1.00  1.00  1.00  1.00  1.00  1.00  0.80  0.61  0.41  0.58  0.75  0.93  0.77  0.62  0.47  0.65  0.82  1.00  1.00  1.00  1.00  1.00  1.00
1.00  1.00  1.00  1.00  1.00  1.00  1.00  0.80  0.61  0.41  0.58  0.75  0.93  0.77  0.62  0.47  0.65  0.82  1.00  1.00  1.00  1.00  1.00  1.00
1.00  1.00  1.00  1.00  1.00  1.00  1.00  0.80  0.61  0.41  0.58  0.75  0.93  0.77  0.62  0.47  0.65  0.82  1.00  1.00  1.00  1.00  1.00  1.00
1.00  1.00  1.00  1.00  1.00  1.00  1.00  0.80  0.61  0.41  0.58  0.75  0.93  0.77  0.62  0.47  0.65  0.82  1.00  1.00  1.00  1.00  1.00  1.00
1.00  1.00  1.00  1.00  1.00  1.00  1.00  0.80  0.61  0.41  0.58  0.75  0.93  0.77  0.62  0.47  0.65  0.82  1.00  1.00  1.00  1.00  1.00  1.00
1.00  1.00  1.00  1.00  1.00  1.00  1.00  0.80  0.61  0.41  0.58  0.75  0.93  0.77  0.62  0.47  0.65  0.82  1.00  1.00  1.00  1.00  1.00  1.00
1.00  1.00  1.00  1.00  1.00  1.00  1.00  0.80  0.61  0.41  0.58  0.75  0.93  0.77  0.62  0.47  0.65  0.82  1.00  1.00  1.00  1.00  1.00  1.00
1.00  1.00  1.00  1.00  1.00  1.00  1.00  0.80  0.61  0.41  0.58  0.75  0.93  0.77  0.62  0.47  0.65  0.82  1.00  1.00  1.00  1.00  1.00  1.00
1.00  1.00  1.00  1.00  1.00  1.00  1.00  0.80  0.61  0.41  0.58  0.75  0.93  0.77  0.62  0.47  0.65  0.82  1.00  1.00  1.00  1.00  1.00  1.00
1.00  1.00  1.00  1.00  1.00  1.00  1.00  0.80  0.61  0.41  0.58  0.75  0.93  0.77  0.62  0.47  0.65  0.82  1.00  1.00  1.00  1.00  1.00  1.00
1.00  1.00  1.00  1.00  1.00  1.00  1.00  0.80  0.61  0.41  0.58  0.75  0.93  0.77  0.62  0.47  0.65  0.82  1.00  1.00  1.00  1.00  1.00  1.00
1.00  1.00  1.00  1.00  1.00  1.00  1.00  0.80  0.61  0.41  0.58  0.75  0.93  0.77  0.62  0.47  0.65  0.82  1.00  1.00  1.00  1.00  1.00  1.00
1.00  1.00  1.00  1.00  1.00  1.00  1.00  0.80  0.61  0.41  0.58  0.75  0.93  0.77  0.62  0.47  0.65  0.82  1.00  1.00  1.00  1.00  1.00  1.00
1.00  1.00  1.00  1.00  1.00  1.00  1.00  0.80  0.61  0.41  0.58  0.75  0.93  0.77  0.62  0.47  0.65  0.82  1.00  1.00  1.00  1.00  1.00  1.00
1.00  1.00  1.00  1.00  1.00  1.00  1.00  0.80  0.61  0.41  0.58  0.75  0.93  0.77  0.62  0.47  0.65  0.82  1.00  1.00  1.00  1.00  1.00  1.00
1.00  1.00  1.00  1.00  1.00  1.00  1.00  0.80  0.61  0.41  0.58  0.75  0.93  0.77  0.62  0.47  0.65  0.82  1.00  1.00  1.00  1.00  1.00  1.00
1.00  1.00  1.00  1.00  1.00  1.00  1.00  0.80  0.61  0.41  0.58  0.75  0.93  0.77  0.62  0.47  0.65  0.82  1.00  1.00  1.00  1.00  1.00  1.00
1.00  1.00  1.00  1.00  1.00  1.00  1.00  0.80  0.61  0.41  0.58  0.75  0.93  0.77  0.62  0.47  0.65  0.82  1.00  1.00  1.00  1.00  1.00  1.00
1.00  1.00  1.00  1.00  1.00  1.00  1.00  0.80  0.61  0.41  0.58  0.75  0.93  0.77  0.62  0.47  0.65  0.82  1.00  1.00  1.00  1.00  1.00  1.00
$ ilon ilat of the cell. lon: 7.4, 34.8
5   8
$ sizes of the cell in km
    73.117       82.528       95.887      115.149      105.665       97.749       88.956       97.749      105.665      115.149       95.887       82.528       73.117       82.528       95.887      115.149      105.665       97.749       88.956       97.749      105.665      115.149       95.887       82.528
$ mean alpha: 0.675432290309
$ mean beta: 0.850138927977
$alpha by ik, ith
1.00  1.00  1.00  1.00  1.00  1.00  1.00  0.67  0.33  0.00  0.13  0.27  0.40  0.27  0.13  0.00  0.33  0.67  1.00  1.00  1.00  1.00  1.00  1.00
1.00  1.00  1.00  1.00  1.00  1.00  1.00  0.67  0.33  0.00  0.13  0.27  0.40  0.27  0.13  0.00  0.33  0.67  1.00  1.00  1.00  1.00  1.00  1.00
1.00  1.00  1.00  1.00  1.00  1.00  1.00  0.67  0.33  0.00  0.13  0.27  0.40  0.27  0.13  0.00  0.33  0.67  1.00  1.00  1.00  1.00  1.00  1.00
1.00  1.00  1.00  1.00  1.00  1.00  1.00  0.67  0.33  0.00  0.13  0.27  0.40  0.27  0.13  0.00  0.33  0.67  1.00  1.00  1.00  1.00  1.00  1.00
1.00  1.00  1.00  1.00  1.00  1.00  1.00  0.67  0.33  0.00  0.13  0.27  0.40  0.27  0.13  0.00  0.33  0.67  1.00  1.00  1.00  1.00  1.00  1.00
1.00  1.00  1.00  1.00  1.00  1.00  1.00  0.67  0.33  0.00  0.13  0.27  0.40  0.27  0.13  0.00  0.33  0.67  1.00  1.00  1.00  1.00  1.00  1.00
1.00  1.00  1.00  1.00  1.00  1.00  1.00  0.67  0.33  0.00  0.13  0.27  0.40  0.27  0.13  0.00  0.33  0.67  1.00  1.00  1.00  1.00  1.00  1.00
1.00  1.00  1.00  1.00  1.00  1.00  1.00  0.67  0.33  0.00  0.13  0.27  0.40  0.27  0.13  0.00  0.33  0.67  1.00  1.00  1.00  1.00  1.00  1.00
1.00  1.00  1.00  1.00  1.00  1.00  1.00  0.67  0.33  0.00  0.13  0.27  0.40  0.27  0.13  0.00  0.33  0.67  1.00  1.00  1.00  1.00  1.00  1.00
1.00  1.00  1.00  1.00  1.00  1.00  1.00  0.67  0.33  0.00  0.13  0.27  0.40  0.27  0.13  0.00  0.33  0.67  1.00  1.00  1.00  1.00  1.00  1.00
1.00  1.00  1.00  1.00  1.00  1.00  1.00  0.67  0.33  0.00  0.13  0.27  0.40  0.27  0.13  0.00  0.33  0.67  1.00  1.00  1.00  1.00  1.00  1.00
1.00  1.00  1.00  1.00  1.00  1.00  1.00  0.67  0.33  0.00  0.13  0.27  0.40  0.27  0.13  0.00  0.33  0.67  1.00  1.00  1.00  1.00  1.00  1.00
1.00  1.00  1.00  1.00  1.00  1.00  1.00  0.67  0.33  0.00  0.13  0.27  0.40  0.27  0.13  0.00  0.33  0.67  1.00  1.00  1.00  1.00  1.00  1.00
1.00  1.00  1.00  1.00  1.00  1.00  1.00  0.67  0.33  0.00  0.13  0.27  0.40  0.27  0.13  0.00  0.33  0.67  1.00  1.00  1.00  1.00  1.00  1.00
1.00  1.00  1.00  1.00  1.00  1.00  1.00  0.67  0.33  0.00  0.13  0.27  0.40  0.27  0.13  0.00  0.33  0.67  1.00  1.00  1.00  1.00  1.00  1.00
1.00  1.00  1.00  1.00  1.00  1.00  1.00  0.67  0.33  0.00  0.13  0.27  0.40  0.27  0.13  0.00  0.33  0.67  1.00  1.00  1.00  1.00  1.00  1.00
1.00  1.00  1.00  1.00  1.00  1.00  1.00  0.67  0.33  0.00  0.13  0.27  0.40  0.27  0.13  0.00  0.33  0.67  1.00  1.00  1.00  1.00  1.00  1.00
1.00  1.00  1.00  1.00  1.00  1.00  1.00  0.67  0.33  0.00  0.13  0.27  0.40  0.27  0.13  0.00  0.33  0.67  1.00  1.00  1.00  1.00  1.00  1.00
1.00  1.00  1.00  1.00  1.00  1.00  1.00  0.67  0.33  0.00  0.13  0.27  0.40  0.27  0.13  0.00  0.33  0.67  1.00  1.00  1.00  1.00  1.00  1.00
1.00  1.00  1.00  1.00  1.00  1.00  1.00  0.67  0.33  0.00  0.13  0.27  0.40  0.27  0.13  0.00  0.33  0.67  1.00  1.00  1.00  1.00  1.00  1.00
1.00  1.00  1.00  1.00  1.00  1.00  1.00  0.67  0.33  0.00  0.13  0.27  0.40  0.27  0.13  0.00  0.33  0.67  1.00  1.00  1.00  1.00  1.00  1.00
1.00  1.00  1.00  1.00  1.00  1.00  1.00  0.67  0.33  0.00  0.13  0.27  0.40  0.27  0.13  0.00  0.33  0.67  1.00  1.00  1.00  1.00  1.00  1.00
1.00  1.00  1.00  1.00  1.00  1.00  1.00  0.67  0.33  0.00  0.13  0.27  0.40  0.27  0.13  0.00  0.33  0.67  1.00  1.00  1.00  1.00  1.00  1.00
1.00  1.00  1.00  1.00  1.00  1.00  1.00  0.67  0.33  0.00  0.13  0.27  0.40  0.27  0.13  0.00  0.33  0.67  1.00  1.00  1.00  1.00  1.00  1.00
1.00  1.00  1.00  1.00  1.00  1.00  1.00  0.67  0.33  0.00  0.13  0.27  0.40  0.27  0.13  0.00  0.33  0.67  1.00  1.00  1.00  1.00  1.00  1.00
$beta by ik, ith
1.00  1.00  1.00  1.00  1.00  1.00  1.00  0.80  0.61  0.41  0.58  0.75  0.92  0.77  0.62  0.47  0.65  0.82  1.00  1.00  1.00  1.00  1.00  1.00
1.00  1.00  1.00  1.00  1.00  1.00  1.00  0.80  0.61  0.41  0.58  0.75  0.92  0.77  0.62  0.47  0.65  0.82  1.00  1.00  1.00  1.00  1.00  1.00
1.00  1.00  1.00  1.00  1.00  1.00  1.00  0.80  0.61  0.41  0.58  0.75  0.92  0.77  0.62  0.47  0.65  0.82  1.00  1.00  1.00  1.00  1.00  1.00
1.00  1.00  1.00  1.00  1.00  1.00  1.00  0.80  0.61  0.41  0.58  0.75  0.92  0.77  0.62  0.47  0.65  0.82  1.00  1.00  1.00  1.00  1.00  1.00
1.00  1.00  1.00  1.00  1.00  1.00  1.00  0.80  0.61  0.41  0.58  0.75  0.92  0.77  0.62  0.47  0.65  0.82  1.00  1.00  1.00  1.00  1.00  1.00
1.00  1.00  1.00  1.00  1.00  1.00  1.00  0.80  0.61  0.41  0.58  0.75  0.92  0.77  0.62  0.47  0.65  0.82  1.00  1.00  1.00  1.00  1.00  1.00
1.00  1.00  1.00  1.00  1.00  1.00  1.00  0.80  0.61  0.41  0.58  0.75  0.92  0.77  0.62  0.47  0.65  0.82  1.00  1.00  1.00  1.00  1.00  1.00
1.00  1.00  1.00  1.00  1.00  1.00  1.00  0.80  0.61  0.41  0.58  0.75  0.92  0.77  0.62  0.47  0.65  0.82  1.00  1.00  1.00  1.00  1.00  1.00
1.00  1.00  1.00  1.00  1.00  1.00  1.00  0.80  0.61  0.41  0.58  0.75  0.92  0.77  0.62  0.47  0.65  0.82  1.00  1.00  1.00  1.00  1.00  1.00
1.00  1.00  1.00  1.00  1.00  1.00  1.00  0.80  0.61  0.41  0.58  0.75  0.92  0.77  0.62  0.47  0.65  0.82  1.00  1.00  1.00  1.00  1.00  1.00
1.00  1.00  1.00  1.00  1.00  1.00  1.00  0.80  0.61  0.41  0.58  0.75  0.92  0.77  0.62  0.47  0.65  0.82  1.00  1.00  1.00  1.00  1.00  1.00
1.00  1.00  1.00  1.00  1.00  1.00  1.00  0.80  0.61  0.41  0.58  0.75  0.92  0.77  0.62  0.47  0.65  0.82  1.00  1.00  1.00  1.00  1.00  1.00
1.00  1.00  1.00  1.00  1.00  1.00  1.00  0.80  0.61  0.41  0.58  0.75  0.92  0.77  0.62  0.47  0.65  0.82  1.00  1.00  1.00  1.00  1.00  1.00
1.00  1.00  1.00  1.00  1.00  1.00  1.00  0.80  0.61  0.41  0.58  0.75  0.92  0.77  0.62  0.47  0.65  0.82  1.00  1.00  1.00  1.00  1.00  1.00
1.00  1.00  1.00  1.00  1.00  1.00  1.00  0.80  0.61  0.41  0.58  0.75  0.92  0.77  0.62  0.47  0.65  0.82  1.00  1.00  1.00  1.00  1.00  1.00
1.00  1.00  1.00  1.00  1.00  1.00  1.00  0.80  0.61  0.41  0.58  0.75  0.92  0.77  0.62  0.47  0.65  0.82  1.00  1.00  1.00  1.00  1.00  1.00
1.00  1.00  1.00  1.00  1.00  1.00  1.00  0.80  0.61  0.41  0.58  0.75  0.92  0.77  0.62  0.47  0.65  0.82  1.00  1.00  1.00  1.00  1.00  1.00
1.00  1.00  1.00  1.00  1.00  1.00  1.00  0.80  0.61  0.41  0.58  0.75  0.92  0.77  0.62  0.47  0.65  0.82  1.00  1.00  1.00  1.00  1.00  1.00
1.00  1.00  1.00  1.00  1.00  1.00  1.00  0.80  0.61  0.41  0.58  0.75  0.92  0.77  0.62  0.47  0.65  0.82  1.00  1.00  1.00  1.00  1.00  1.00
1.00  1.00  1.00  1.00  1.00  1.00  1.00  0.80  0.61  0.41  0.58  0.75  0.92  0.77  0.62  0.47  0.65  0.82  1.00  1.00  1.00  1.00  1.00  1.00
1.00  1.00  1.00  1.00  1.00  1.00  1.00  0.80  0.61  0.41  0.58  0.75  0.92  0.77  0.62  0.47  0.65  0.82  1.00  1.00  1.00  1.00  1.00  1.00
1.00  1.00  1.00  1.00  1.00  1.00  1.00  0.80  0.61  0.41  0.58  0.75  0.92  0.77  0.62  0.47  0.65  0.82  1.00  1.00  1.00  1.00  1.00  1.00
1.00  1.00  1.00  1.00  1.00  1.00  1.00  0.80  0.61  0.41  0.58  0.75  0.92  0.77  0.62  0.47  0.65  0.82  1.00  1.00  1.00  1.00  1.00  1.00
1.00  1.00  1.00  1.00  1.00  1.00  1.00  0.80  0.61  0.41  0.58  0.75  0.92  0.77  0.62  0.47  0.65  0.82  1.00  1.00  1.00  1.00  1.00  1.00
1.00  1.00  1.00  1.00  1.00  1.00  1.00  0.80  0.61  0.41  0.58  0.75  0.92  0.77  0.62  0.47  0.65  0.82  1.00  1.00  1.00  1.00  1.00  1.00
$ ilon ilat of the cell. lon: 7.4, 35.6
5   9
$ sizes of the cell in km
    72.402       81.799       95.260      114.696      105.476       97.705       88.956       97.705      105.476      114.696       95.260       81.799       72.402       81.799       95.260      114.696      105.476       97.705       88.956       97.705      105.476      114.696       95.260       81.799
$ mean alpha: 0.675432290309
$ mean beta: 0.850138927977
$alpha by ik, ith
1.00  1.00  1.00  1.00  1.00  1.00  1.00  0.67  0.33  0.00  0.13  0.27  0.40  0.27  0.13  0.00  0.33  0.67  1.00  1.00  1.00  1.00  1.00  1.00
1.00  1.00  1.00  1.00  1.00  1.00  1.00  0.67  0.33  0.00  0.13  0.27  0.40  0.27  0.13  0.00  0.33  0.67  1.00  1.00  1.00  1.00  1.00  1.00
1.00  1.00  1.00  1.00  1.00  1.00  1.00  0.67  0.33  0.00  0.13  0.27  0.40  0.27  0.13  0.00  0.33  0.67  1.00  1.00  1.00  1.00  1.00  1.00
1.00  1.00  1.00  1.00  1.00  1.00  1.00  0.67  0.33  0.00  0.13  0.27  0.40  0.27  0.13  0.00  0.33  0.67  1.00  1.00  1.00  1.00  1.00  1.00
1.00  1.00  1.00  1.00  1.00  1.00  1.00  0.67  0.33  0.00  0.13  0.27  0.40  0.27  0.13  0.00  0.33  0.67  1.00  1.00  1.00  1.00  1.00  1.00
1.00  1.00  1.00  1.00  1.00  1.00  1.00  0.67  0.33  0.00  0.13  0.27  0.40  0.27  0.13  0.00  0.33  0.67  1.00  1.00  1.00  1.00  1.00  1.00
1.00  1.00  1.00  1.00  1.00  1.00  1.00  0.67  0.33  0.00  0.13  0.27  0.40  0.27  0.13  0.00  0.33  0.67  1.00  1.00  1.00  1.00  1.00  1.00
1.00  1.00  1.00  1.00  1.00  1.00  1.00  0.67  0.33  0.00  0.13  0.27  0.40  0.27  0.13  0.00  0.33  0.67  1.00  1.00  1.00  1.00  1.00  1.00
1.00  1.00  1.00  1.00  1.00  1.00  1.00  0.67  0.33  0.00  0.13  0.27  0.40  0.27  0.13  0.00  0.33  0.67  1.00  1.00  1.00  1.00  1.00  1.00
1.00  1.00  1.00  1.00  1.00  1.00  1.00  0.67  0.33  0.00  0.13  0.27  0.40  0.27  0.13  0.00  0.33  0.67  1.00  1.00  1.00  1.00  1.00  1.00
1.00  1.00  1.00  1.00  1.00  1.00  1.00  0.67  0.33  0.00  0.13  0.27  0.40  0.27  0.13  0.00  0.33  0.67  1.00  1.00  1.00  1.00  1.00  1.00
1.00  1.00  1.00  1.00  1.00  1.00  1.00  0.67  0.33  0.00  0.13  0.27  0.40  0.27  0.13  0.00  0.33  0.67  1.00  1.00  1.00  1.00  1.00  1.00
1.00  1.00  1.00  1.00  1.00  1.00  1.00  0.67  0.33  0.00  0.13  0.27  0.40  0.27  0.13  0.00  0.33  0.67  1.00  1.00  1.00  1.00  1.00  1.00
1.00  1.00  1.00  1.00  1.00  1.00  1.00  0.67  0.33  0.00  0.13  0.27  0.40  0.27  0.13  0.00  0.33  0.67  1.00  1.00  1.00  1.00  1.00  1.00
1.00  1.00  1.00  1.00  1.00  1.00  1.00  0.67  0.33  0.00  0.13  0.27  0.40  0.27  0.13  0.00  0.33  0.67  1.00  1.00  1.00  1.00  1.00  1.00
1.00  1.00  1.00  1.00  1.00  1.00  1.00  0.67  0.33  0.00  0.13  0.27  0.40  0.27  0.13  0.00  0.33  0.67  1.00  1.00  1.00  1.00  1.00  1.00
1.00  1.00  1.00  1.00  1.00  1.00  1.00  0.67  0.33  0.00  0.13  0.27  0.40  0.27  0.13  0.00  0.33  0.67  1.00  1.00  1.00  1.00  1.00  1.00
1.00  1.00  1.00  1.00  1.00  1.00  1.00  0.67  0.33  0.00  0.13  0.27  0.40  0.27  0.13  0.00  0.33  0.67  1.00  1.00  1.00  1.00  1.00  1.00
1.00  1.00  1.00  1.00  1.00  1.00  1.00  0.67  0.33  0.00  0.13  0.27  0.40  0.27  0.13  0.00  0.33  0.67  1.00  1.00  1.00  1.00  1.00  1.00
1.00  1.00  1.00  1.00  1.00  1.00  1.00  0.67  0.33  0.00  0.13  0.27  0.40  0.27  0.13  0.00  0.33  0.67  1.00  1.00  1.00  1.00  1.00  1.00
1.00  1.00  1.00  1.00  1.00  1.00  1.00  0.67  0.33  0.00  0.13  0.27  0.40  0.27  0.13  0.00  0.33  0.67  1.00  1.00  1.00  1.00  1.00  1.00
1.00  1.00  1.00  1.00  1.00  1.00  1.00  0.67  0.33  0.00  0.13  0.27  0.40  0.27  0.13  0.00  0.33  0.67  1.00  1.00  1.00  1.00  1.00  1.00
1.00  1.00  1.00  1.00  1.00  1.00  1.00  0.67  0.33  0.00  0.13  0.27  0.40  0.27  0.13  0.00  0.33  0.67  1.00  1.00  1.00  1.00  1.00  1.00
1.00  1.00  1.00  1.00  1.00  1.00  1.00  0.67  0.33  0.00  0.13  0.27  0.40  0.27  0.13  0.00  0.33  0.67  1.00  1.00  1.00  1.00  1.00  1.00
1.00  1.00  1.00  1.00  1.00  1.00  1.00  0.67  0.33  0.00  0.13  0.27  0.40  0.27  0.13  0.00  0.33  0.67  1.00  1.00  1.00  1.00  1.00  1.00
$beta by ik, ith
1.00  1.00  1.00  1.00  1.00  1.00  1.00  0.80  0.61  0.41  0.58  0.75  0.93  0.77  0.62  0.47  0.65  0.82  1.00  1.00  1.00  1.00  1.00  1.00
1.00  1.00  1.00  1.00  1.00  1.00  1.00  0.80  0.61  0.41  0.58  0.75  0.93  0.77  0.62  0.47  0.65  0.82  1.00  1.00  1.00  1.00  1.00  1.00
1.00  1.00  1.00  1.00  1.00  1.00  1.00  0.80  0.61  0.41  0.58  0.75  0.93  0.77  0.62  0.47  0.65  0.82  1.00  1.00  1.00  1.00  1.00  1.00
1.00  1.00  1.00  1.00  1.00  1.00  1.00  0.80  0.61  0.41  0.58  0.75  0.93  0.77  0.62  0.47  0.65  0.82  1.00  1.00  1.00  1.00  1.00  1.00
1.00  1.00  1.00  1.00  1.00  1.00  1.00  0.80  0.61  0.41  0.58  0.75  0.93  0.77  0.62  0.47  0.65  0.82  1.00  1.00  1.00  1.00  1.00  1.00
1.00  1.00  1.00  1.00  1.00  1.00  1.00  0.80  0.61  0.41  0.58  0.75  0.93  0.77  0.62  0.47  0.65  0.82  1.00  1.00  1.00  1.00  1.00  1.00
1.00  1.00  1.00  1.00  1.00  1.00  1.00  0.80  0.61  0.41  0.58  0.75  0.93  0.77  0.62  0.47  0.65  0.82  1.00  1.00  1.00  1.00  1.00  1.00
1.00  1.00  1.00  1.00  1.00  1.00  1.00  0.80  0.61  0.41  0.58  0.75  0.93  0.77  0.62  0.47  0.65  0.82  1.00  1.00  1.00  1.00  1.00  1.00
1.00  1.00  1.00  1.00  1.00  1.00  1.00  0.80  0.61  0.41  0.58  0.75  0.93  0.77  0.62  0.47  0.65  0.82  1.00  1.00  1.00  1.00  1.00  1.00
1.00  1.00  1.00  1.00  1.00  1.00  1.00  0.80  0.61  0.41  0.58  0.75  0.93  0.77  0.62  0.47  0.65  0.82  1.00  1.00  1.00  1.00  1.00  1.00
1.00  1.00  1.00  1.00  1.00  1.00  1.00  0.80  0.61  0.41  0.58  0.75  0.93  0.77  0.62  0.47  0.65  0.82  1.00  1.00  1.00  1.00  1.00  1.00
1.00  1.00  1.00  1.00  1.00  1.00  1.00  0.80  0.61  0.41  0.58  0.75  0.93  0.77  0.62  0.47  0.65  0.82  1.00  1.00  1.00  1.00  1.00  1.00
1.00  1.00  1.00  1.00  1.00  1.00  1.00  0.80  0.61  0.41  0.58  0.75  0.93  0.77  0.62  0.47  0.65  0.82  1.00  1.00  1.00  1.00  1.00  1.00
1.00  1.00  1.00  1.00  1.00  1.00  1.00  0.80  0.61  0.41  0.58  0.75  0.93  0.77  0.62  0.47  0.65  0.82  1.00  1.00  1.00  1.00  1.00  1.00
1.00  1.00  1.00  1.00  1.00  1.00  1.00  0.80  0.61  0.41  0.58  0.75  0.93  0.77  0.62  0.47  0.65  0.82  1.00  1.00  1.00  1.00  1.00  1.00
1.00  1.00  1.00  1.00  1.00  1.00  1.00  0.80  0.61  0.41  0.58  0.75  0.93  0.77  0.62  0.47  0.65  0.82  1.00  1.00  1.00  1.00  1.00  1.00
1.00  1.00  1.00  1.00  1.00  1.00  1.00  0.80  0.61  0.41  0.58  0.75  0.93  0.77  0.62  0.47  0.65  0.82  1.00  1.00  1.00  1.00  1.00  1.00
1.00  1.00  1.00  1.00  1.00  1.00  1.00  0.80  0.61  0.41  0.58  0.75  0.93  0.77  0.62  0.47  0.65  0.82  1.00  1.00  1.00  1.00  1.00  1.00
1.00  1.00  1.00  1.00  1.00  1.00  1.00  0.80  0.61  0.41  0.58  0.75  0.93  0.77  0.62  0.47  0.65  0.82  1.00  1.00  1.00  1.00  1.00  1.00
1.00  1.00  1.00  1.00  1.00  1.00  1.00  0.80  0.61  0.41  0.58  0.75  0.93  0.77  0.62  0.47  0.65  0.82  1.00  1.00  1.00  1.00  1.00  1.00
1.00  1.00  1.00  1.00  1.00  1.00  1.00  0.80  0.61  0.41  0.58  0.75  0.93  0.77  0.62  0.47  0.65  0.82  1.00  1.00  1.00  1.00  1.00  1.00
1.00  1.00  1.00  1.00  1.00  1.00  1.00  0.80  0.61  0.41  0.58  0.75  0.93  0.77  0.62  0.47  0.65  0.82  1.00  1.00  1.00  1.00  1.00  1.00
1.00  1.00  1.00  1.00  1.00  1.00  1.00  0.80  0.61  0.41  0.58  0.75  0.93  0.77  0.62  0.47  0.65  0.82  1.00  1.00  1.00  1.00  1.00  1.00
1.00  1.00  1.00  1.00  1.00  1.00  1.00  0.80  0.61  0.41  0.58  0.75  0.93  0.77  0.62  0.47  0.65  0.82  1.00  1.00  1.00  1.00  1.00  1.00
1.00  1.00  1.00  1.00  1.00  1.00  1.00  0.80  0.61  0.41  0.58  0.75  0.93  0.77  0.62  0.47  0.65  0.82  1.00  1.00  1.00  1.00  1.00  1.00
$ ilon ilat of the cell. lon: 7.4, 36.4
5   10
$ sizes of the cell in km
    71.674       81.057       94.624      114.238      105.285       97.661       88.956       97.661      105.285      114.238       94.624       81.057       71.674       81.057       94.624      114.238      105.285       97.661       88.956       97.661      105.285      114.238       94.624       81.057
$ mean alpha: 0.675432290309
$ mean beta: 0.850138927977
$alpha by ik, ith
1.00  1.00  1.00  1.00  1.00  1.00  1.00  0.67  0.33  0.00  0.13  0.27  0.40  0.27  0.13  0.00  0.33  0.67  1.00  1.00  1.00  1.00  1.00  1.00
1.00  1.00  1.00  1.00  1.00  1.00  1.00  0.67  0.33  0.00  0.13  0.27  0.40  0.27  0.13  0.00  0.33  0.67  1.00  1.00  1.00  1.00  1.00  1.00
1.00  1.00  1.00  1.00  1.00  1.00  1.00  0.67  0.33  0.00  0.13  0.27  0.40  0.27  0.13  0.00  0.33  0.67  1.00  1.00  1.00  1.00  1.00  1.00
1.00  1.00  1.00  1.00  1.00  1.00  1.00  0.67  0.33  0.00  0.13  0.27  0.40  0.27  0.13  0.00  0.33  0.67  1.00  1.00  1.00  1.00  1.00  1.00
1.00  1.00  1.00  1.00  1.00  1.00  1.00  0.67  0.33  0.00  0.13  0.27  0.40  0.27  0.13  0.00  0.33  0.67  1.00  1.00  1.00  1.00  1.00  1.00
1.00  1.00  1.00  1.00  1.00  1.00  1.00  0.67  0.33  0.00  0.13  0.27  0.40  0.27  0.13  0.00  0.33  0.67  1.00  1.00  1.00  1.00  1.00  1.00
1.00  1.00  1.00  1.00  1.00  1.00  1.00  0.67  0.33  0.00  0.13  0.27  0.40  0.27  0.13  0.00  0.33  0.67  1.00  1.00  1.00  1.00  1.00  1.00
1.00  1.00  1.00  1.00  1.00  1.00  1.00  0.67  0.33  0.00  0.13  0.27  0.40  0.27  0.13  0.00  0.33  0.67  1.00  1.00  1.00  1.00  1.00  1.00
1.00  1.00  1.00  1.00  1.00  1.00  1.00  0.67  0.33  0.00  0.13  0.27  0.40  0.27  0.13  0.00  0.33  0.67  1.00  1.00  1.00  1.00  1.00  1.00
1.00  1.00  1.00  1.00  1.00  1.00  1.00  0.67  0.33  0.00  0.13  0.27  0.40  0.27  0.13  0.00  0.33  0.67  1.00  1.00  1.00  1.00  1.00  1.00
1.00  1.00  1.00  1.00  1.00  1.00  1.00  0.67  0.33  0.00  0.13  0.27  0.40  0.27  0.13  0.00  0.33  0.67  1.00  1.00  1.00  1.00  1.00  1.00
1.00  1.00  1.00  1.00  1.00  1.00  1.00  0.67  0.33  0.00  0.13  0.27  0.40  0.27  0.13  0.00  0.33  0.67  1.00  1.00  1.00  1.00  1.00  1.00
1.00  1.00  1.00  1.00  1.00  1.00  1.00  0.67  0.33  0.00  0.13  0.27  0.40  0.27  0.13  0.00  0.33  0.67  1.00  1.00  1.00  1.00  1.00  1.00
1.00  1.00  1.00  1.00  1.00  1.00  1.00  0.67  0.33  0.00  0.13  0.27  0.40  0.27  0.13  0.00  0.33  0.67  1.00  1.00  1.00  1.00  1.00  1.00
1.00  1.00  1.00  1.00  1.00  1.00  1.00  0.67  0.33  0.00  0.13  0.27  0.40  0.27  0.13  0.00  0.33  0.67  1.00  1.00  1.00  1.00  1.00  1.00
1.00  1.00  1.00  1.00  1.00  1.00  1.00  0.67  0.33  0.00  0.13  0.27  0.40  0.27  0.13  0.00  0.33  0.67  1.00  1.00  1.00  1.00  1.00  1.00
1.00  1.00  1.00  1.00  1.00  1.00  1.00  0.67  0.33  0.00  0.13  0.27  0.40  0.27  0.13  0.00  0.33  0.67  1.00  1.00  1.00  1.00  1.00  1.00
1.00  1.00  1.00  1.00  1.00  1.00  1.00  0.67  0.33  0.00  0.13  0.27  0.40  0.27  0.13  0.00  0.33  0.67  1.00  1.00  1.00  1.00  1.00  1.00
1.00  1.00  1.00  1.00  1.00  1.00  1.00  0.67  0.33  0.00  0.13  0.27  0.40  0.27  0.13  0.00  0.33  0.67  1.00  1.00  1.00  1.00  1.00  1.00
1.00  1.00  1.00  1.00  1.00  1.00  1.00  0.67  0.33  0.00  0.13  0.27  0.40  0.27  0.13  0.00  0.33  0.67  1.00  1.00  1.00  1.00  1.00  1.00
1.00  1.00  1.00  1.00  1.00  1.00  1.00  0.67  0.33  0.00  0.13  0.27  0.40  0.27  0.13  0.00  0.33  0.67  1.00  1.00  1.00  1.00  1.00  1.00
1.00  1.00  1.00  1.00  1.00  1.00  1.00  0.67  0.33  0.00  0.13  0.27  0.40  0.27  0.13  0.00  0.33  0.67  1.00  1.00  1.00  1.00  1.00  1.00
1.00  1.00  1.00  1.00  1.00  1.00  1.00  0.67  0.33  0.00  0.13  0.27  0.40  0.27  0.13  0.00  0.33  0.67  1.00  1.00  1.00  1.00  1.00  1.00
1.00  1.00  1.00  1.00  1.00  1.00  1.00  0.67  0.33  0.00  0.13  0.27  0.40  0.27  0.13  0.00  0.33  0.67  1.00  1.00  1.00  1.00  1.00  1.00
1.00  1.00  1.00  1.00  1.00  1.00  1.00  0.67  0.33  0.00  0.13  0.27  0.40  0.27  0.13  0.00  0.33  0.67  1.00  1.00  1.00  1.00  1.00  1.00
$beta by ik, ith
1.00  1.00  1.00  1.00  1.00  1.00  1.00  0.80  0.61  0.41  0.58  0.75  0.93  0.77  0.62  0.47  0.65  0.82  1.00  1.00  1.00  1.00  1.00  1.00
1.00  1.00  1.00  1.00  1.00  1.00  1.00  0.80  0.61  0.41  0.58  0.75  0.93  0.77  0.62  0.47  0.65  0.82  1.00  1.00  1.00  1.00  1.00  1.00
1.00  1.00  1.00  1.00  1.00  1.00  1.00  0.80  0.61  0.41  0.58  0.75  0.93  0.77  0.62  0.47  0.65  0.82  1.00  1.00  1.00  1.00  1.00  1.00
1.00  1.00  1.00  1.00  1.00  1.00  1.00  0.80  0.61  0.41  0.58  0.75  0.93  0.77  0.62  0.47  0.65  0.82  1.00  1.00  1.00  1.00  1.00  1.00
1.00  1.00  1.00  1.00  1.00  1.00  1.00  0.80  0.61  0.41  0.58  0.75  0.93  0.77  0.62  0.47  0.65  0.82  1.00  1.00  1.00  1.00  1.00  1.00
1.00  1.00  1.00  1.00  1.00  1.00  1.00  0.80  0.61  0.41  0.58  0.75  0.93  0.77  0.62  0.47  0.65  0.82  1.00  1.00  1.00  1.00  1.00  1.00
1.00  1.00  1.00  1.00  1.00  1.00  1.00  0.80  0.61  0.41  0.58  0.75  0.93  0.77  0.62  0.47  0.65  0.82  1.00  1.00  1.00  1.00  1.00  1.00
1.00  1.00  1.00  1.00  1.00  1.00  1.00  0.80  0.61  0.41  0.58  0.75  0.93  0.77  0.62  0.47  0.65  0.82  1.00  1.00  1.00  1.00  1.00  1.00
1.00  1.00  1.00  1.00  1.00  1.00  1.00  0.80  0.61  0.41  0.58  0.75  0.93  0.77  0.62  0.47  0.65  0.82  1.00  1.00  1.00  1.00  1.00  1.00
1.00  1.00  1.00  1.00  1.00  1.00  1.00  0.80  0.61  0.41  0.58  0.75  0.93  0.77  0.62  0.47  0.65  0.82  1.00  1.00  1.00  1.00  1.00  1.00
1.00  1.00  1.00  1.00  1.00  1.00  1.00  0.80  0.61  0.41  0.58  0.75  0.93  0.77  0.62  0.47  0.65  0.82  1.00  1.00  1.00  1.00  1.00  1.00
1.00  1.00  1.00  1.00  1.00  1.00  1.00  0.80  0.61  0.41  0.58  0.75  0.93  0.77  0.62  0.47  0.65  0.82  1.00  1.00  1.00  1.00  1.00  1.00
1.00  1.00  1.00  1.00  1.00  1.00  1.00  0.80  0.61  0.41  0.58  0.75  0.93  0.77  0.62  0.47  0.65  0.82  1.00  1.00  1.00  1.00  1.00  1.00
1.00  1.00  1.00  1.00  1.00  1.00  1.00  0.80  0.61  0.41  0.58  0.75  0.93  0.77  0.62  0.47  0.65  0.82  1.00  1.00  1.00  1.00  1.00  1.00
1.00  1.00  1.00  1.00  1.00  1.00  1.00  0.80  0.61  0.41  0.58  0.75  0.93  0.77  0.62  0.47  0.65  0.82  1.00  1.00  1.00  1.00  1.00  1.00
1.00  1.00  1.00  1.00  1.00  1.00  1.00  0.80  0.61  0.41  0.58  0.75  0.93  0.77  0.62  0.47  0.65  0.82  1.00  1.00  1.00  1.00  1.00  1.00
1.00  1.00  1.00  1.00  1.00  1.00  1.00  0.80  0.61  0.41  0.58  0.75  0.93  0.77  0.62  0.47  0.65  0.82  1.00  1.00  1.00  1.00  1.00  1.00
1.00  1.00  1.00  1.00  1.00  1.00  1.00  0.80  0.61  0.41  0.58  0.75  0.93  0.77  0.62  0.47  0.65  0.82  1.00  1.00  1.00  1.00  1.00  1.00
1.00  1.00  1.00  1.00  1.00  1.00  1.00  0.80  0.61  0.41  0.58  0.75  0.93  0.77  0.62  0.47  0.65  0.82  1.00  1.00  1.00  1.00  1.00  1.00
1.00  1.00  1.00  1.00  1.00  1.00  1.00  0.80  0.61  0.41  0.58  0.75  0.93  0.77  0.62  0.47  0.65  0.82  1.00  1.00  1.00  1.00  1.00  1.00
1.00  1.00  1.00  1.00  1.00  1.00  1.00  0.80  0.61  0.41  0.58  0.75  0.93  0.77  0.62  0.47  0.65  0.82  1.00  1.00  1.00  1.00  1.00  1.00
1.00  1.00  1.00  1.00  1.00  1.00  1.00  0.80  0.61  0.41  0.58  0.75  0.93  0.77  0.62  0.47  0.65  0.82  1.00  1.00  1.00  1.00  1.00  1.00
1.00  1.00  1.00  1.00  1.00  1.00  1.00  0.80  0.61  0.41  0.58  0.75  0.93  0.77  0.62  0.47  0.65  0.82  1.00  1.00  1.00  1.00  1.00  1.00
1.00  1.00  1.00  1.00  1.00  1.00  1.00  0.80  0.61  0.41  0.58  0.75  0.93  0.77  0.62  0.47  0.65  0.82  1.00  1.00  1.00  1.00  1.00  1.00
1.00  1.00  1.00  1.00  1.00  1.00  1.00  0.80  0.61  0.41  0.58  0.75  0.93  0.77  0.62  0.47  0.65  0.82  1.00  1.00  1.00  1.00  1.00  1.00
$ ilon ilat of the cell. lon: 7.4, 37.2
5   11
$ sizes of the cell in km
    70.931       80.301       93.977      113.773      105.092       97.616       88.956       97.616      105.092      113.773       93.977       80.301       70.931       80.301       93.977      113.773      105.092       97.616       88.956       97.616      105.092      113.773       93.977       80.301
$ mean alpha: 0.700121268864
$ mean beta: 0.877062004901
$alpha by ik, ith
1.00  1.00  1.00  1.00  1.00  1.00  1.00  0.67  0.33  0.00  0.13  0.27  0.40  0.33  0.27  0.20  0.47  0.73  1.00  1.00  1.00  1.00  1.00  1.00
1.00  1.00  1.00  1.00  1.00  1.00  1.00  0.67  0.33  0.00  0.13  0.27  0.40  0.33  0.27  0.20  0.47  0.73  1.00  1.00  1.00  1.00  1.00  1.00
1.00  1.00  1.00  1.00  1.00  1.00  1.00  0.67  0.33  0.00  0.13  0.27  0.40  0.33  0.27  0.20  0.47  0.73  1.00  1.00  1.00  1.00  1.00  1.00
1.00  1.00  1.00  1.00  1.00  1.00  1.00  0.67  0.33  0.00  0.13  0.27  0.40  0.33  0.27  0.20  0.47  0.73  1.00  1.00  1.00  1.00  1.00  1.00
1.00  1.00  1.00  1.00  1.00  1.00  1.00  0.67  0.33  0.00  0.13  0.27  0.40  0.33  0.27  0.20  0.47  0.73  1.00  1.00  1.00  1.00  1.00  1.00
1.00  1.00  1.00  1.00  1.00  1.00  1.00  0.67  0.33  0.00  0.13  0.27  0.40  0.33  0.27  0.20  0.47  0.73  1.00  1.00  1.00  1.00  1.00  1.00
1.00  1.00  1.00  1.00  1.00  1.00  1.00  0.67  0.33  0.00  0.13  0.27  0.40  0.33  0.27  0.20  0.47  0.73  1.00  1.00  1.00  1.00  1.00  1.00
1.00  1.00  1.00  1.00  1.00  1.00  1.00  0.67  0.33  0.00  0.13  0.27  0.40  0.33  0.27  0.20  0.47  0.73  1.00  1.00  1.00  1.00  1.00  1.00
1.00  1.00  1.00  1.00  1.00  1.00  1.00  0.67  0.33  0.00  0.13  0.27  0.40  0.33  0.27  0.20  0.47  0.73  1.00  1.00  1.00  1.00  1.00  1.00
1.00  1.00  1.00  1.00  1.00  1.00  1.00  0.67  0.33  0.00  0.13  0.27  0.40  0.33  0.27  0.20  0.47  0.73  1.00  1.00  1.00  1.00  1.00  1.00
1.00  1.00  1.00  1.00  1.00  1.00  1.00  0.67  0.33  0.00  0.13  0.27  0.40  0.33  0.27  0.20  0.47  0.73  1.00  1.00  1.00  1.00  1.00  1.00
1.00  1.00  1.00  1.00  1.00  1.00  1.00  0.67  0.33  0.00  0.13  0.27  0.40  0.33  0.27  0.20  0.47  0.73  1.00  1.00  1.00  1.00  1.00  1.00
1.00  1.00  1.00  1.00  1.00  1.00  1.00  0.67  0.33  0.00  0.13  0.27  0.40  0.33  0.27  0.20  0.47  0.73  1.00  1.00  1.00  1.00  1.00  1.00
1.00  1.00  1.00  1.00  1.00  1.00  1.00  0.67  0.33  0.00  0.13  0.27  0.40  0.33  0.27  0.20  0.47  0.73  1.00  1.00  1.00  1.00  1.00  1.00
1.00  1.00  1.00  1.00  1.00  1.00  1.00  0.67  0.33  0.00  0.13  0.27  0.40  0.33  0.27  0.20  0.47  0.73  1.00  1.00  1.00  1.00  1.00  1.00
1.00  1.00  1.00  1.00  1.00  1.00  1.00  0.67  0.33  0.00  0.13  0.27  0.40  0.33  0.27  0.20  0.47  0.73  1.00  1.00  1.00  1.00  1.00  1.00
1.00  1.00  1.00  1.00  1.00  1.00  1.00  0.67  0.33  0.00  0.13  0.27  0.40  0.33  0.27  0.20  0.47  0.73  1.00  1.00  1.00  1.00  1.00  1.00
1.00  1.00  1.00  1.00  1.00  1.00  1.00  0.67  0.33  0.00  0.13  0.27  0.40  0.33  0.27  0.20  0.47  0.73  1.00  1.00  1.00  1.00  1.00  1.00
1.00  1.00  1.00  1.00  1.00  1.00  1.00  0.67  0.33  0.00  0.13  0.27  0.40  0.33  0.27  0.20  0.47  0.73  1.00  1.00  1.00  1.00  1.00  1.00
1.00  1.00  1.00  1.00  1.00  1.00  1.00  0.67  0.33  0.00  0.13  0.27  0.40  0.33  0.27  0.20  0.47  0.73  1.00  1.00  1.00  1.00  1.00  1.00
1.00  1.00  1.00  1.00  1.00  1.00  1.00  0.67  0.33  0.00  0.13  0.27  0.40  0.33  0.27  0.20  0.47  0.73  1.00  1.00  1.00  1.00  1.00  1.00
1.00  1.00  1.00  1.00  1.00  1.00  1.00  0.67  0.33  0.00  0.13  0.27  0.40  0.33  0.27  0.20  0.47  0.73  1.00  1.00  1.00  1.00  1.00  1.00
[...]
0.40  0.38  0.36  0.33  0.55  0.78  1.00  1.00  1.00  1.00  1.00  1.00  1.00  1.00  1.00  1.00  1.00  1.00  1.00  0.80  0.60  0.40  0.40  0.40
0.40  0.38  0.36  0.33  0.55  0.78  1.00  1.00  1.00  1.00  1.00  1.00  1.00  1.00  1.00  1.00  1.00  1.00  1.00  0.80  0.60  0.40  0.40  0.40
0.40  0.38  0.36  0.33  0.55  0.78  1.00  1.00  1.00  1.00  1.00  1.00  1.00  1.00  1.00  1.00  1.00  1.00  1.00  0.80  0.60  0.40  0.40  0.40
0.40  0.38  0.36  0.33  0.55  0.78  1.00  1.00  1.00  1.00  1.00  1.00  1.00  1.00  1.00  1.00  1.00  1.00  1.00  0.80  0.60  0.40  0.40  0.40
0.40  0.38  0.36  0.33  0.55  0.78  1.00  1.00  1.00  1.00  1.00  1.00  1.00  1.00  1.00  1.00  1.00  1.00  1.00  0.80  0.60  0.40  0.40  0.40
0.40  0.38  0.36  0.33  0.55  0.78  1.00  1.00  1.00  1.00  1.00  1.00  1.00  1.00  1.00  1.00  1.00  1.00  1.00  0.80  0.60  0.40  0.40  0.40
0.40  0.38  0.36  0.33  0.55  0.78  1.00  1.00  1.00  1.00  1.00  1.00  1.00  1.00  1.00  1.00  1.00  1.00  1.00  0.80  0.60  0.40  0.40  0.40
0.40  0.38  0.36  0.33  0.55  0.78  1.00  1.00  1.00  1.00  1.00  1.00  1.00  1.00  1.00  1.00  1.00  1.00  1.00  0.80  0.60  0.40  0.40  0.40
$beta by ik, ith
0.40  0.38  0.36  0.34  0.56  0.78  1.00  1.00  1.00  1.00  1.00  1.00  1.00  1.00  1.00  1.00  1.00  1.00  1.00  0.81  0.61  0.42  0.41  0.41
0.40  0.38  0.36  0.34  0.56  0.78  1.00  1.00  1.00  1.00  1.00  1.00  1.00  1.00  1.00  1.00  1.00  1.00  1.00  0.81  0.61  0.42  0.41  0.41
0.40  0.38  0.36  0.34  0.56  0.78  1.00  1.00  1.00  1.00  1.00  1.00  1.00  1.00  1.00  1.00  1.00  1.00  1.00  0.81  0.61  0.42  0.41  0.41
0.40  0.38  0.36  0.34  0.56  0.78  1.00  1.00  1.00  1.00  1.00  1.00  1.00  1.00  1.00  1.00  1.00  1.00  1.00  0.81  0.61  0.42  0.41  0.41
0.40  0.38  0.36  0.34  0.56  0.78  1.00  1.00  1.00  1.00  1.00  1.00  1.00  1.00  1.00  1.00  1.00  1.00  1.00  0.81  0.61  0.42  0.41  0.41
0.40  0.38  0.36  0.34  0.56  0.78  1.00  1.00  1.00  1.00  1.00  1.00  1.00  1.00  1.00  1.00  1.00  1.00  1.00  0.81  0.61  0.42  0.41  0.41
0.40  0.38  0.36  0.34  0.56  0.78  1.00  1.00  1.00  1.00  1.00  1.00  1.00  1.00  1.00  1.00  1.00  1.00  1.00  0.81  0.61  0.42  0.41  0.41
0.40  0.38  0.36  0.34  0.56  0.78  1.00  1.00  1.00  1.00  1.00  1.00  1.00  1.00  1.00  1.00  1.00  1.00  1.00  0.81  0.61  0.42  0.41  0.41
0.40  0.38  0.36  0.34  0.56  0.78  1.00  1.00  1.00  1.00  1.00  1.00  1.00  1.00  1.00  1.00  1.00  1.00  1.00  0.81  0.61  0.42  0.41  0.41
0.40  0.38  0.36  0.34  0.56  0.78  1.00  1.00  1.00  1.00  1.00  1.00  1.00  1.00  1.00  1.00  1.00  1.00  1.00  0.81  0.61  0.42  0.41  0.41
0.40  0.38  0.36  0.34  0.56  0.78  1.00  1.00  1.00  1.00  1.00  1.00  1.00  1.00  1.00  1.00  1.00  1.00  1.00  0.81  0.61  0.42  0.41  0.41
0.40  0.38  0.36  0.34  0.56  0.78  1.00  1.00  1.00  1.00  1.00  1.00  1.00  1.00  1.00  1.00  1.00  1.00  1.00  0.81  0.61  0.42  0.41  0.41
0.40  0.38  0.36  0.34  0.56  0.78  1.00  1.00  1.00  1.00  1.00  1.00  1.00  1.00  1.00  1.00  1.00  1.00  1.00  0.81  0.61  0.42  0.41  0.41
0.40  0.38  0.36  0.34  0.56  0.78  1.00  1.00  1.00  1.00  1.00  1.00  1.00  1.00  1.00  1.00  1.00  1.00  1.00  0.81  0.61  0.42  0.41  0.41
0.40  0.38  0.36  0.34  0.56  0.78  1.00  1.00  1.00  1.00  1.00  1.00  1.00  1.00  1.00  1.00  1.00  1.00  1.00  0.81  0.61  0.42  0.41  0.41
0.40  0.38  0.36  0.34  0.56  0.78  1.00  1.00  1.00  1.00  1.00  1.00  1.00  1.00  1.00  1.00  1.00  1.00  1.00  0.81  0.61  0.42  0.41  0.41
0.40  0.38  0.36  0.34  0.56  0.78  1.00  1.00  1.00  1.00  1.00  1.00  1.00  1.00  1.00  1.00  1.00  1.00  1.00  0.81  0.61  0.42  0.41  0.41
0.40  0.38  0.36  0.34  0.56  0.78  1.00  1.00  1.00  1.00  1.00  1.00  1.00  1.00  1.00  1.00  1.00  1.00  1.00  0.81  0.61  0.42  0.41  0.41
0.40  0.38  0.36  0.34  0.56  0.78  1.00  1.00  1.00  1.00  1.00  1.00  1.00  1.00  1.00  1.00  1.00  1.00  1.00  0.81  0.61  0.42  0.41  0.41
0.40  0.38  0.36  0.34  0.56  0.78  1.00  1.00  1.00  1.00  1.00  1.00  1.00  1.00  1.00  1.00  1.00  1.00  1.00  0.81  0.61  0.42  0.41  0.41
0.40  0.38  0.36  0.34  0.56  0.78  1.00  1.00  1.00  1.00  1.00  1.00  1.00  1.00  1.00  1.00  1.00  1.00  1.00  0.81  0.61  0.42  0.41  0.41
0.40  0.38  0.36  0.34  0.56  0.78  1.00  1.00  1.00  1.00  1.00  1.00  1.00  1.00  1.00  1.00  1.00  1.00  1.00  0.81  0.61  0.42  0.41  0.41
0.40  0.38  0.36  0.34  0.56  0.78  1.00  1.00  1.00  1.00  1.00  1.00  1.00  1.00  1.00  1.00  1.00  1.00  1.00  0.81  0.61  0.42  0.41  0.41
0.40  0.38  0.36  0.34  0.56  0.78  1.00  1.00  1.00  1.00  1.00  1.00  1.00  1.00  1.00  1.00  1.00  1.00  1.00  0.81  0.61  0.42  0.41  0.41
0.40  0.38  0.36  0.34  0.56  0.78  1.00  1.00  1.00  1.00  1.00  1.00  1.00  1.00  1.00  1.00  1.00  1.00  1.00  0.81  0.61  0.42  0.41  0.41
$ ilon ilat of the cell. lon: 9.0, 37.2
7   11
$ sizes of the cell in km
    70.931       80.301       93.977      113.773      105.092       97.616       88.956       97.616      105.092      113.773       93.977       80.301       70.931       80.301       93.977      113.773      105.092       97.616       88.956       97.616      105.092      113.773       93.977       80.301
$ mean alpha: 0.804428935012
$ mean beta: 0.811310247705
$alpha by ik, ith
0.40  0.38  0.36  0.33  0.55  0.78  1.00  1.00  1.00  1.00  1.00  1.00  1.00  1.00  1.00  1.00  1.00  1.00  1.00  0.90  0.80  0.70  0.60  0.50
0.40  0.38  0.36  0.33  0.55  0.78  1.00  1.00  1.00  1.00  1.00  1.00  1.00  1.00  1.00  1.00  1.00  1.00  1.00  0.90  0.80  0.70  0.60  0.50
0.40  0.38  0.36  0.33  0.55  0.78  1.00  1.00  1.00  1.00  1.00  1.00  1.00  1.00  1.00  1.00  1.00  1.00  1.00  0.90  0.80  0.70  0.60  0.50
0.40  0.38  0.36  0.33  0.55  0.78  1.00  1.00  1.00  1.00  1.00  1.00  1.00  1.00  1.00  1.00  1.00  1.00  1.00  0.90  0.80  0.70  0.60  0.50
0.40  0.38  0.36  0.33  0.55  0.78  1.00  1.00  1.00  1.00  1.00  1.00  1.00  1.00  1.00  1.00  1.00  1.00  1.00  0.90  0.80  0.70  0.60  0.50
0.40  0.38  0.36  0.33  0.55  0.78  1.00  1.00  1.00  1.00  1.00  1.00  1.00  1.00  1.00  1.00  1.00  1.00  1.00  0.90  0.80  0.70  0.60  0.50
0.40  0.38  0.36  0.33  0.55  0.78  1.00  1.00  1.00  1.00  1.00  1.00  1.00  1.00  1.00  1.00  1.00  1.00  1.00  0.90  0.80  0.70  0.60  0.50
0.40  0.38  0.36  0.33  0.55  0.78  1.00  1.00  1.00  1.00  1.00  1.00  1.00  1.00  1.00  1.00  1.00  1.00  1.00  0.90  0.80  0.70  0.60  0.50
0.40  0.38  0.36  0.33  0.55  0.78  1.00  1.00  1.00  1.00  1.00  1.00  1.00  1.00  1.00  1.00  1.00  1.00  1.00  0.90  0.80  0.70  0.60  0.50
0.40  0.38  0.36  0.33  0.55  0.78  1.00  1.00  1.00  1.00  1.00  1.00  1.00  1.00  1.00  1.00  1.00  1.00  1.00  0.90  0.80  0.70  0.60  0.50
0.40  0.38  0.36  0.33  0.55  0.78  1.00  1.00  1.00  1.00  1.00  1.00  1.00  1.00  1.00  1.00  1.00  1.00  1.00  0.90  0.80  0.70  0.60  0.50
0.40  0.38  0.36  0.33  0.55  0.78  1.00  1.00  1.00  1.00  1.00  1.00  1.00  1.00  1.00  1.00  1.00  1.00  1.00  0.90  0.80  0.70  0.60  0.50
0.40  0.38  0.36  0.33  0.55  0.78  1.00  1.00  1.00  1.00  1.00  1.00  1.00  1.00  1.00  1.00  1.00  1.00  1.00  0.90  0.80  0.70  0.60  0.50
0.40  0.38  0.36  0.33  0.55  0.78  1.00  1.00  1.00  1.00  1.00  1.00  1.00  1.00  1.00  1.00  1.00  1.00  1.00  0.90  0.80  0.70  0.60  0.50
0.40  0.38  0.36  0.33  0.55  0.78  1.00  1.00  1.00  1.00  1.00  1.00  1.00  1.00  1.00  1.00  1.00  1.00  1.00  0.90  0.80  0.70  0.60  0.50
0.40  0.38  0.36  0.33  0.55  0.78  1.00  1.00  1.00  1.00  1.00  1.00  1.00  1.00  1.00  1.00  1.00  1.00  1.00  0.90  0.80  0.70  0.60  0.50
0.40  0.38  0.36  0.33  0.55  0.78  1.00  1.00  1.00  1.00  1.00  1.00  1.00  1.00  1.00  1.00  1.00  1.00  1.00  0.90  0.80  0.70  0.60  0.50
0.40  0.38  0.36  0.33  0.55  0.78  1.00  1.00  1.00  1.00  1.00  1.00  1.00  1.00  1.00  1.00  1.00  1.00  1.00  0.90  0.80  0.70  0.60  0.50
0.40  0.38  0.36  0.33  0.55  0.78  1.00  1.00  1.00  1.00  1.00  1.00  1.00  1.00  1.00  1.00  1.00  1.00  1.00  0.90  0.80  0.70  0.60  0.50
0.40  0.38  0.36  0.33  0.55  0.78  1.00  1.00  1.00  1.00  1.00  1.00  1.00  1.00  1.00  1.00  1.00  1.00  1.00  0.90  0.80  0.70  0.60  0.50
0.40  0.38  0.36  0.33  0.55  0.78  1.00  1.00  1.00  1.00  1.00  1.00  1.00  1.00  1.00  1.00  1.00  1.00  1.00  0.90  0.80  0.70  0.60  0.50
0.40  0.38  0.36  0.33  0.55  0.78  1.00  1.00  1.00  1.00  1.00  1.00  1.00  1.00  1.00  1.00  1.00  1.00  1.00  0.90  0.80  0.70  0.60  0.50
0.40  0.38  0.36  0.33  0.55  0.78  1.00  1.00  1.00  1.00  1.00  1.00  1.00  1.00  1.00  1.00  1.00  1.00  1.00  0.90  0.80  0.70  0.60  0.50
0.40  0.38  0.36  0.33  0.55  0.78  1.00  1.00  1.00  1.00  1.00  1.00  1.00  1.00  1.00  1.00  1.00  1.00  1.00  0.90  0.80  0.70  0.60  0.50
0.40  0.38  0.36  0.33  0.55  0.78  1.00  1.00  1.00  1.00  1.00  1.00  1.00  1.00  1.00  1.00  1.00  1.00  1.00  0.90  0.80  0.70  0.60  0.50
$beta by ik, ith
0.40  0.38  0.36  0.34  0.56  0.78  1.00  1.00  1.00  1.00  1.00  1.00  1.00  1.00  1.00  1.00  1.00  1.00  1.00  0.92  0.83  0.75  0.63  0.52
0.40  0.38  0.36  0.34  0.56  0.78  1.00  1.00  1.00  1.00  1.00  1.00  1.00  1.00  1.00  1.00  1.00  1.00  1.00  0.92  0.83  0.75  0.63  0.52
0.40  0.38  0.36  0.34  0.56  0.78  1.00  1.00  1.00  1.00  1.00  1.00  1.00  1.00  1.00  1.00  1.00  1.00  1.00  0.92  0.83  0.75  0.63  0.52
0.40  0.38  0.36  0.34  0.56  0.78  1.00  1.00  1.00  1.00  1.00  1.00  1.00  1.00  1.00  1.00  1.00  1.00  1.00  0.92  0.83  0.75  0.63  0.52
0.40  0.38  0.36  0.34  0.56  0.78  1.00  1.00  1.00  1.00  1.00  1.00  1.00  1.00  1.00  1.00  1.00  1.00  1.00  0.92  0.83  0.75  0.63  0.52
0.40  0.38  0.36  0.34  0.56  0.78  1.00  1.00  1.00  1.00  1.00  1.00  1.00  1.00  1.00  1.00  1.00  1.00  1.00  0.92  0.83  0.75  0.63  0.52
0.40  0.38  0.36  0.34  0.56  0.78  1.00  1.00  1.00  1.00  1.00  1.00  1.00  1.00  1.00  1.00  1.00  1.00  1.00  0.92  0.83  0.75  0.63  0.52
0.40  0.38  0.36  0.34  0.56  0.78  1.00  1.00  1.00  1.00  1.00  1.00  1.00  1.00  1.00  1.00  1.00  1.00  1.00  0.92  0.83  0.75  0.63  0.52
0.40  0.38  0.36  0.34  0.56  0.78  1.00  1.00  1.00  1.00  1.00  1.00  1.00  1.00  1.00  1.00  1.00  1.00  1.00  0.92  0.83  0.75  0.63  0.52
0.40  0.38  0.36  0.34  0.56  0.78  1.00  1.00  1.00  1.00  1.00  1.00  1.00  1.00  1.00  1.00  1.00  1.00  1.00  0.92  0.83  0.75  0.63  0.52
0.40  0.38  0.36  0.34  0.56  0.78  1.00  1.00  1.00  1.00  1.00  1.00  1.00  1.00  1.00  1.00  1.00  1.00  1.00  0.92  0.83  0.75  0.63  0.52
0.40  0.38  0.36  0.34  0.56  0.78  1.00  1.00  1.00  1.00  1.00  1.00  1.00  1.00  1.00  1.00  1.00  1.00  1.00  0.92  0.83  0.75  0.63  0.52
0.40  0.38  0.36  0.34  0.56  0.78  1.00  1.00  1.00  1.00  1.00  1.00  1.00  1.00  1.00  1.00  1.00  1.00  1.00  0.92  0.83  0.75  0.63  0.52
0.40  0.38  0.36  0.34  0.56  0.78  1.00  1.00  1.00  1.00  1.00  1.00  1.00  1.00  1.00  1.00  1.00  1.00  1.00  0.92  0.83  0.75  0.63  0.52
0.40  0.38  0.36  0.34  0.56  0.78  1.00  1.00  1.00  1.00  1.00  1.00  1.00  1.00  1.00  1.00  1.00  1.00  1.00  0.92  0.83  0.75  0.63  0.52
0.40  0.38  0.36  0.34  0.56  0.78  1.00  1.00  1.00  1.00  1.00  1.00  1.00  1.00  1.00  1.00  1.00  1.00  1.00  0.92  0.83  0.75  0.63  0.52
0.40  0.38  0.36  0.34  0.56  0.78  1.00  1.00  1.00  1.00  1.00  1.00  1.00  1.00  1.00  1.00  1.00  1.00  1.00  0.92  0.83  0.75  0.63  0.52
0.40  0.38  0.36  0.34  0.56  0.78  1.00  1.00  1.00  1.00  1.00  1.00  1.00  1.00  1.00  1.00  1.00  1.00  1.00  0.92  0.83  0.75  0.63  0.52
0.40  0.38  0.36  0.34  0.56  0.78  1.00  1.00  1.00  1.00  1.00  1.00  1.00  1.00  1.00  1.00  1.00  1.00  1.00  0.92  0.83  0.75  0.63  0.52
0.40  0.38  0.36  0.34  0.56  0.78  1.00  1.00  1.00  1.00  1.00  1.00  1.00  1.00  1.00  1.00  1.00  1.00  1.00  0.92  0.83  0.75  0.63  0.52
0.40  0.38  0.36  0.34  0.56  0.78  1.00  1.00  1.00  1.00  1.00  1.00  1.00  1.00  1.00  1.00  1.00  1.00  1.00  0.92  0.83  0.75  0.63  0.52
0.40  0.38  0.36  0.34  0.56  0.78  1.00  1.00  1.00  1.00  1.00  1.00  1.00  1.00  1.00  1.00  1.00  1.00  1.00  0.92  0.83  0.75  0.63  0.52
0.40  0.38  0.36  0.34  0.56  0.78  1.00  1.00  1.00  1.00  1.00  1.00  1.00  1.00  1.00  1.00  1.00  1.00  1.00  0.92  0.83  0.75  0.63  0.52
0.40  0.38  0.36  0.34  0.56  0.78  1.00  1.00  1.00  1.00  1.00  1.00  1.00  1.00  1.00  1.00  1.00  1.00  1.00  0.92  0.83  0.75  0.63  0.52
0.40  0.38  0.36  0.34  0.56  0.78  1.00  1.00  1.00  1.00  1.00  1.00  1.00  1.00  1.00  1.00  1.00  1.00  1.00  0.92  0.83  0.75  0.63  0.52
$ ilon ilat of the cell. lon: 9.0, 38.0
7   12
$ sizes of the cell in km
    70.175       79.532       93.321      113.303      104.896       97.571       88.956       97.571      104.896      113.303       93.321       79.532       70.175       79.532       93.321      113.303      104.896       97.571       88.956       97.571      104.896      113.303       93.321       79.532
$ mean alpha: 0.878996644703
$ mean beta: 0.880220520848
$alpha by ik, ith
0.70  0.58  0.45  0.33  0.55  0.78  1.00  1.00  1.00  1.00  1.00  1.00  1.00  1.00  1.00  1.00  1.00  1.00  1.00  1.00  1.00  1.00  0.90  0.80
0.70  0.58  0.45  0.33  0.55  0.78  1.00  1.00  1.00  1.00  1.00  1.00  1.00  1.00  1.00  1.00  1.00  1.00  1.00  1.00  1.00  1.00  0.90  0.80
0.70  0.58  0.45  0.33  0.55  0.78  1.00  1.00  1.00  1.00  1.00  1.00  1.00  1.00  1.00  1.00  1.00  1.00  1.00  1.00  1.00  1.00  0.90  0.80
0.70  0.58  0.45  0.33  0.55  0.78  1.00  1.00  1.00  1.00  1.00  1.00  1.00  1.00  1.00  1.00  1.00  1.00  1.00  1.00  1.00  1.00  0.90  0.80
0.70  0.58  0.45  0.33  0.55  0.78  1.00  1.00  1.00  1.00  1.00  1.00  1.00  1.00  1.00  1.00  1.00  1.00  1.00  1.00  1.00  1.00  0.90  0.80
0.70  0.58  0.45  0.33  0.55  0.78  1.00  1.00  1.00  1.00  1.00  1.00  1.00  1.00  1.00  1.00  1.00  1.00  1.00  1.00  1.00  1.00  0.90  0.80
0.70  0.58  0.45  0.33  0.55  0.78  1.00  1.00  1.00  1.00  1.00  1.00  1.00  1.00  1.00  1.00  1.00  1.00  1.00  1.00  1.00  1.00  0.90  0.80
0.70  0.58  0.45  0.33  0.55  0.78  1.00  1.00  1.00  1.00  1.00  1.00  1.00  1.00  1.00  1.00  1.00  1.00  1.00  1.00  1.00  1.00  0.90  0.80
0.70  0.58  0.45  0.33  0.55  0.78  1.00  1.00  1.00  1.00  1.00  1.00  1.00  1.00  1.00  1.00  1.00  1.00  1.00  1.00  1.00  1.00  0.90  0.80
0.70  0.58  0.45  0.33  0.55  0.78  1.00  1.00  1.00  1.00  1.00  1.00  1.00  1.00  1.00  1.00  1.00  1.00  1.00  1.00  1.00  1.00  0.90  0.80
0.70  0.58  0.45  0.33  0.55  0.78  1.00  1.00  1.00  1.00  1.00  1.00  1.00  1.00  1.00  1.00  1.00  1.00  1.00  1.00  1.00  1.00  0.90  0.80
0.70  0.58  0.45  0.33  0.55  0.78  1.00  1.00  1.00  1.00  1.00  1.00  1.00  1.00  1.00  1.00  1.00  1.00  1.00  1.00  1.00  1.00  0.90  0.80
0.70  0.58  0.45  0.33  0.55  0.78  1.00  1.00  1.00  1.00  1.00  1.00  1.00  1.00  1.00  1.00  1.00  1.00  1.00  1.00  1.00  1.00  0.90  0.80
0.70  0.58  0.45  0.33  0.55  0.78  1.00  1.00  1.00  1.00  1.00  1.00  1.00  1.00  1.00  1.00  1.00  1.00  1.00  1.00  1.00  1.00  0.90  0.80
0.70  0.58  0.45  0.33  0.55  0.78  1.00  1.00  1.00  1.00  1.00  1.00  1.00  1.00  1.00  1.00  1.00  1.00  1.00  1.00  1.00  1.00  0.90  0.80
0.70  0.58  0.45  0.33  0.55  0.78  1.00  1.00  1.00  1.00  1.00  1.00  1.00  1.00  1.00  1.00  1.00  1.00  1.00  1.00  1.00  1.00  0.90  0.80
0.70  0.58  0.45  0.33  0.55  0.78  1.00  1.00  1.00  1.00  1.00  1.00  1.00  1.00  1.00  1.00  1.00  1.00  1.00  1.00  1.00  1.00  0.90  0.80
0.70  0.58  0.45  0.33  0.55  0.78  1.00  1.00  1.00  1.00  1.00  1.00  1.00  1.00  1.00  1.00  1.00  1.00  1.00  1.00  1.00  1.00  0.90  0.80
0.70  0.58  0.45  0.33  0.55  0.78  1.00  1.00  1.00  1.00  1.00  1.00  1.00  1.00  1.00  1.00  1.00  1.00  1.00  1.00  1.00  1.00  0.90  0.80
0.70  0.58  0.45  0.33  0.55  0.78  1.00  1.00  1.00  1.00  1.00  1.00  1.00  1.00  1.00  1.00  1.00  1.00  1.00  1.00  1.00  1.00  0.90  0.80
0.70  0.58  0.45  0.33  0.55  0.78  1.00  1.00  1.00  1.00  1.00  1.00  1.00  1.00  1.00  1.00  1.00  1.00  1.00  1.00  1.00  1.00  0.90  0.80
0.70  0.58  0.45  0.33  0.55  0.78  1.00  1.00  1.00  1.00  1.00  1.00  1.00  1.00  1.00  1.00  1.00  1.00  1.00  1.00  1.00  1.00  0.90  0.80
0.70  0.58  0.45  0.33  0.55  0.78  1.00  1.00  1.00  1.00  1.00  1.00  1.00  1.00  1.00  1.00  1.00  1.00  1.00  1.00  1.00  1.00  0.90  0.80
0.70  0.58  0.45  0.33  0.55  0.78  1.00  1.00  1.00  1.00  1.00  1.00  1.00  1.00  1.00  1.00  1.00  1.00  1.00  1.00  1.00  1.00  0.90  0.80
0.70  0.58  0.45  0.33  0.55  0.78  1.00  1.00  1.00  1.00  1.00  1.00  1.00  1.00  1.00  1.00  1.00  1.00  1.00  1.00  1.00  1.00  0.90  0.80
$beta by ik, ith
0.70  0.58  0.46  0.34  0.56  0.78  1.00  1.00  1.00  1.00  1.00  1.00  1.00  1.00  1.00  1.00  1.00  1.00  1.00  1.00  1.00  1.00  0.90  0.80
0.70  0.58  0.46  0.34  0.56  0.78  1.00  1.00  1.00  1.00  1.00  1.00  1.00  1.00  1.00  1.00  1.00  1.00  1.00  1.00  1.00  1.00  0.90  0.80
0.70  0.58  0.46  0.34  0.56  0.78  1.00  1.00  1.00  1.00  1.00  1.00  1.00  1.00  1.00  1.00  1.00  1.00  1.00  1.00  1.00  1.00  0.90  0.80
0.70  0.58  0.46  0.34  0.56  0.78  1.00  1.00  1.00  1.00  1.00  1.00  1.00  1.00  1.00  1.00  1.00  1.00  1.00  1.00  1.00  1.00  0.90  0.80
0.70  0.58  0.46  0.34  0.56  0.78  1.00  1.00  1.00  1.00  1.00  1.00  1.00  1.00  1.00  1.00  1.00  1.00  1.00  1.00  1.00  1.00  0.90  0.80
0.70  0.58  0.46  0.34  0.56  0.78  1.00  1.00  1.00  1.00  1.00  1.00  1.00  1.00  1.00  1.00  1.00  1.00  1.00  1.00  1.00  1.00  0.90  0.80
0.70  0.58  0.46  0.34  0.56  0.78  1.00  1.00  1.00  1.00  1.00  1.00  1.00  1.00  1.00  1.00  1.00  1.00  1.00  1.00  1.00  1.00  0.90  0.80
0.70  0.58  0.46  0.34  0.56  0.78  1.00  1.00  1.00  1.00  1.00  1.00  1.00  1.00  1.00  1.00  1.00  1.00  1.00  1.00  1.00  1.00  0.90  0.80
0.70  0.58  0.46  0.34  0.56  0.78  1.00  1.00  1.00  1.00  1.00  1.00  1.00  1.00  1.00  1.00  1.00  1.00  1.00  1.00  1.00  1.00  0.90  0.80
0.70  0.58  0.46  0.34  0.56  0.78  1.00  1.00  1.00  1.00  1.00  1.00  1.00  1.00  1.00  1.00  1.00  1.00  1.00  1.00  1.00  1.00  0.90  0.80
0.70  0.58  0.46  0.34  0.56  0.78  1.00  1.00  1.00  1.00  1.00  1.00  1.00  1.00  1.00  1.00  1.00  1.00  1.00  1.00  1.00  1.00  0.90  0.80
0.70  0.58  0.46  0.34  0.56  0.78  1.00  1.00  1.00  1.00  1.00  1.00  1.00  1.00  1.00  1.00  1.00  1.00  1.00  1.00  1.00  1.00  0.90  0.80
0.70  0.58  0.46  0.34  0.56  0.78  1.00  1.00  1.00  1.00  1.00  1.00  1.00  1.00  1.00  1.00  1.00  1.00  1.00  1.00  1.00  1.00  0.90  0.80
0.70  0.58  0.46  0.34  0.56  0.78  1.00  1.00  1.00  1.00  1.00  1.00  1.00  1.00  1.00  1.00  1.00  1.00  1.00  1.00  1.00  1.00  0.90  0.80
0.70  0.58  0.46  0.34  0.56  0.78  1.00  1.00  1.00  1.00  1.00  1.00  1.00  1.00  1.00  1.00  1.00  1.00  1.00  1.00  1.00  1.00  0.90  0.80
0.70  0.58  0.46  0.34  0.56  0.78  1.00  1.00  1.00  1.00  1.00  1.00  1.00  1.00  1.00  1.00  1.00  1.00  1.00  1.00  1.00  1.00  0.90  0.80
0.70  0.58  0.46  0.34  0.56  0.78  1.00  1.00  1.00  1.00  1.00  1.00  1.00  1.00  1.00  1.00  1.00  1.00  1.00  1.00  1.00  1.00  0.90  0.80
0.70  0.58  0.46  0.34  0.56  0.78  1.00  1.00  1.00  1.00  1.00  1.00  1.00  1.00  1.00  1.00  1.00  1.00  1.00  1.00  1.00  1.00  0.90  0.80
0.70  0.58  0.46  0.34  0.56  0.78  1.00  1.00  1.00  1.00  1.00  1.00  1.00  1.00  1.00  1.00  1.00  1.00  1.00  1.00  1.00  1.00  0.90  0.80
0.70  0.58  0.46  0.34  0.56  0.78  1.00  1.00  1.00  1.00  1.00  1.00  1.00  1.00  1.00  1.00  1.00  1.00  1.00  1.00  1.00  1.00  0.90  0.80
0.70  0.58  0.46  0.34  0.56  0.78  1.00  1.00  1.00  1.00  1.00  1.00  1.00  1.00  1.00  1.00  1.00  1.00  1.00  1.00  1.00  1.00  0.90  0.80
0.70  0.58  0.46  0.34  0.56  0.78  1.00  1.00  1.00  1.00  1.00  1.00  1.00  1.00  1.00  1.00  1.00  1.00  1.00  1.00  1.00  1.00  0.90  0.80
0.70  0.58  0.46  0.34  0.56  0.78  1.00  1.00  1.00  1.00  1.00  1.00  1.00  1.00  1.00  1.00  1.00  1.00  1.00  1.00  1.00  1.00  0.90  0.80
0.70  0.58  0.46  0.34  0.56  0.78  1.00  1.00  1.00  1.00  1.00  1.00  1.00  1.00  1.00  1.00  1.00  1.00  1.00  1.00  1.00  1.00  0.90  0.80
0.70  0.58  0.46  0.34  0.56  0.78  1.00  1.00  1.00  1.00  1.00  1.00  1.00  1.00  1.00  1.00  1.00  1.00  1.00  1.00  1.00  1.00  0.90  0.80
