! -------------------------------------------------------------------- !
! WAVEWATCH III ww3_ounp.nml - Point output post-processing            !
! -------------------------------------------------------------------- !

! -------------------------------------------------------------------- !
! Define the output fields to postprocess via POINT_NML namelist
! -------------------------------------------------------------------- !
&POINT_NML
  POINT%TIMESTART        =  '19680606 000000'
  POINT%TIMESTRIDE       =  '3600'
  POINT%TIMECOUNT        =  '1000'
/

! -------------------------------------------------------------------- !
! Define the content of the output file via FILE_NML namelist
! -------------------------------------------------------------------- !
&FILE_NML
/

! -------------------------------------------------------------------- !
! Define the type 0, inventory of file
! -------------------------------------------------------------------- !


! -------------------------------------------------------------------- !
! Define the type 1, spectra via SPECTRA_NML namelist
! -------------------------------------------------------------------- !
&SPECTRA_NML
/

! -------------------------------------------------------------------- !
! Define the type 2, mean parameter via PARAM_NML namelist
! -------------------------------------------------------------------- !
&PARAM_NML
/

! -------------------------------------------------------------------- !
! Define the type 3, source terms via SOURCE_NML namelist
! -------------------------------------------------------------------- !
&SOURCE_NML
/

! -------------------------------------------------------------------- !
! WAVEWATCH III - end of namelist                                      !
! -------------------------------------------------------------------- !
