$ WAVEWATCH III shell input file
$ ------------------------------
   F T
   F T
   F T
   F
   F
   F
   F
$
   19680601 000000
   19680601 180000
$
   1
$
   19680601 000000  1200   19680625 000000
$
N
HS DIR SPR 
$
   19680601 000000  1200  19680625 000000
   100000   0.0  'Point1'
   80000    0.0  'Point2'
   60000   0.0  'Point3'
   40000    0.0  'Point4'
   20000   0.0  'Point5'
   00000    0.0  'Point6'
     0.0   0.0  'STOPSTRING'
   19680601 000000      0  19680625 000000
   19680601 000000      0  19680625 000000
   19680601 000000      0  19680625 000000
   19680601 000000      0  19680625 000000
