$ WAVEWATCH III Grid output post-processing
$ -----------------------------------------
  19680606 000000 10800. 1
$
N
HS DP T01 WL02 ALPXT ALPYT ALPXY
$
  1 0
$  3 0
  1 360 2 2 2 1 T T T
$  1 360 2 2 3 1 
$
