$ -------------------------------------------------------------------- $
$ WAVEWATCH III Point output post-processing                           $
$--------------------------------------------------------------------- $
$
 19680606 060000  3600.  24
$
  1
  2
  3
  4
  5
  6
  7
  8
$
 -1
$
  1
$
  3   0.  0.  33  F
$
$ -------------------------------------------------------------------- $
$ End of input file                                                    $
$ -------------------------------------------------------------------- $
