$ WAVEWATCH III Point output post-processing
$ ------------------------------------------
  19680606 120000   3600. 1
$
   1
   2
   3
   4
   5
   6
  -1
$
   1
   1  -1.  0.  33  F
