! -------------------------------------------------------------------- !
! WAVEWATCH III ww3_shel.nml - single-grid model                       !
! -------------------------------------------------------------------- !


! -------------------------------------------------------------------- !
! Define top-level model parameters via DOMAIN_NML namelist
! -------------------------------------------------------------------- !
&DOMAIN_NML
  DOMAIN%START   = '20151025 000000'
  DOMAIN%STOP    = '20151026 000000'
/

! -------------------------------------------------------------------- !
! Define each forcing via the INPUT_NML namelist
! -------------------------------------------------------------------- !
&INPUT_NML
  INPUT%FORCING%ICE_PARAM1    = 'H'
  INPUT%FORCING%WINDS         = 'T'
  INPUT%FORCING%ICE_CONC      = 'T'
/

! -------------------------------------------------------------------- !
! Define the output types point parameters via OUTPUT_TYPE_NML namelist
! -------------------------------------------------------------------- !
&OUTPUT_TYPE_NML
  TYPE%FIELD%LIST          = 'HS WND ICE DPT DIR'
  TYPE%POINT%FILE          = '../i_highres_shel_IC1/points.list'
/

! -------------------------------------------------------------------- !
! Define output dates via OUTPUT_DATE_NML namelist
! -------------------------------------------------------------------- !
&OUTPUT_DATE_NML
  DATE%FIELD          = '20151025 000000' '10800' '20151031 000000'
  DATE%POINT          = '20151025 000000' '10800' '20151031 000000'
/

! -------------------------------------------------------------------- !
! Define homogeneous input via HOMOG_COUNT_NML and HOMOG_INPUT_NML namelist
! -------------------------------------------------------------------- !
&HOMOG_COUNT_NML
  HOMOG_COUNT%N_IC1                =  2
/

&HOMOG_INPUT_NML
  HOMOG_INPUT(1)%NAME        = 'IC1'
  HOMOG_INPUT(1)%DATE        = '20151025 000000'
  HOMOG_INPUT(1)%VALUE1      = 15.0e-6

  HOMOG_INPUT(2)%NAME        = 'IC1'
  HOMOG_INPUT(2)%DATE        = '20151031 000000'
  HOMOG_INPUT(2)%VALUE1      = 15.0e-6
/

! -------------------------------------------------------------------- !
! WAVEWATCH III - end of namelist                                      !
! -------------------------------------------------------------------- !
