$ WAVEWATCH III shell input file
$ ------------------------------
   F T
   F T
   F T
   F
   F
   F
   F
$
   19680606 000000
   19680606 000005
$
   1
$
   19680606 000000    5  19680606 000200
$
N
DPT HS T0M1 
$
   19680606 000000    5  19680606 000200
     0.0   0.   'Boundary'
     5.7   0.   'Station1'
    10.5   0.   'Station2'
    12.5   0.   'Station3'
    13.5   0.   'Station4' 
    14.5   0.   'Station5'
    15.7   0.   'Station6'
    17.3   0.   'Station7'
$
     0.0   0.0  'STOPSTRING'
$
   19680606 000000      0  19680608 000000
   19680606 000000      0  19680608 000000
   19680606 000000      0  19680608 000000
   19680606 000000      0  19680608 000000
