$ WAVEWATCH III Grid output post-processing
$ -----------------------------------------
  19680606 000005  300. 1
$
N
DPT HS TM10
$
  3 0
$
  1 301 1 3 1 1
