$ WAVEWATCH III Grid output post-processing
$ -----------------------------------------
  19680606 000000  1200.  999
$
  N
  DPT CUR HS FP DP
$
  0 999 0 999  T F
