$ WAVEWATCH III Point output post-processing
$ ------------------------------------------
  19680607 120000  3600. 1
$ 
  1
  2
  3
  4
  5
  6
  7
  8
  9
 10
 11
 14
 15
 16
 17
 18
 19
 20
 21
 22
 -1
$
  T F F F F F 
$ 
$ End of input file
