$ WAVEWATCH III Field preprocessor input file
$ -------------------------------------------
   'CUR' 'AI' T T
$
  'NAME' 1 1 '(..T..)' '(..F..)' 
  20 './../input/curr.data'
