$ WAVEWATCH III multi-scale input file
$ ------------------------------------
$ The first input line sets up the general multi-grid model definition
$ by defining the follwing six parameters :
$
$   1) Number of wave model grids.                          ( NRGRD )
$   2) Number of grids defining input fields.               ( NRINP )
$   3) Flag for using unified point output file.           ( UNIPTS )
$   4) Output server type as in ww3_shel.inp
$   5) Flag for dedicated process for unified point output.
$   6) Flag for grids sharing dedicated output processes.
$
  3 0 T 1 T T
$
  'points'
$
  'bound'  'no' 'no' 'no' 'no' 'no' 'no' 'no'  1  1  0.00 1.00  F
  'outer'  'no' 'no' 'no' 'no' 'no' 'no' 'no'  2  1  0.00 1.00  F
  'inner'  'no' 'native' 'no' 'no' 'no' 'no' 'no'  3  1  0.00 1.00  F
$ 'bound'  'no' 'no' 'no' 'no' 'no' 'no' 'no'  1  1  0.00 0.15  F
$ 'outer'  'no' 'no' 'no' 'no' 'no' 'no' 'no'  2  1  0.15 0.50  F
$ 'inner'  'no' 'native' 'no' 'no' 'no' 'no' 'no'  3  1  0.50 1.00  F
$
   19680606 000000   19680607 120000
$
     T F
$
   19680606 000000   1200  19680608 000000
$-------------------------------------------------------------------------------------------------------------------
$ (1) Forcing Fields
  T
$ DPT CUR WND DT  WLV ICE IBG D50
  T   T   T   T   T   T   F   F
$ (2) Standard mean wave Parameters
  T
$ HS  LM  TZ  TE  TM  FP  DIR SPR DP
  T   T   T   T   T   T   T   T   T
$ (3) Frequency-dependent parameters
  T
$ EF TH1M STH1M TH1M STH1M WN
  T  T  T  F  F  F
$ (4) Spectral Partition Parameters
  T
$ PHS PTP PLP PTH PSP PWS WSF PNR
  T   T   T   T   T   T   T   T
$ (5) Atmosphere-waves layer
  T
$ UST CHN CGE FAW TAW NWS WCC WCF WCH WCM
  T   T   T   T   F   F   F   F   F   F
$ (6) Wave-Ocean layer
  F
$ (7) Wave-bottom layer
  F
$ (8) Spectrum parameters
  F
$ (9) Numerical diagnostics
  F
$ (10) User defined
  F
$
   19680606 000000   3600  19680608 000000
    -100.E3    50.E3  'A1        '
    -100.E3     0.E3  'A2        '
    -100.E3   -50.E3  'A3        '
       0.E3   100.E3  'B1        '
       0.E3    50.E3  'B2        '
       0.E3     0.E3  'B3        '
       0.E3   -50.E3  'B4        '
       0.E3  -100.E3  'B5        '
     100.E3    50.E3  'C1        '
     100.E3     0.E3  'C2        '
     100.E3   -50.E3  'C3        '
    -270.E3     0.E3  'IN        '
     300.E3     0.E3  'OUT       '
     200.E3   200.E3  'D1        '
     200.E3   150.E3  'D2        '
     200.E3   100.E3  'D3        '
     200.E3    50.E3  'D4        '
     200.E3     0.E3  'D5        '
     200.E3   -50.E3  'D6        '
     200.E3  -100.E3  'D7        '
     200.E3  -150.E3  'D8        '
     200.E3  -200.E3  'D9        '
       0.E3     0.E3  'STOPSTRING'
$
   19680606 000000      0  19680608 000000
   19680606 011200      0  19680606 011200
   19680606 000000      0  19680608 000000
   19680606 000000      0  19680608 000000
$
  'the_end'  0
$
  'STP'
$
$ End of input file
