! -------------------------------------------------------------------- !
! WAVEWATCH III - ww3_grid.nml - Grid pre-processing                   !
! -------------------------------------------------------------------- !

! -------------------------------------------------------------------- !
! Define the spectrum parameterization via SPECTRUM_NML namelist
! -------------------------------------------------------------------- !
&SPECTRUM_NML
  SPECTRUM%XFR       =  1.03
  SPECTRUM%FREQ1     =  0.075
  SPECTRUM%NK        =  20
  SPECTRUM%NTH       =  24
/

! -------------------------------------------------------------------- !
! Define the run parameterization via RUN_NML namelist
! -------------------------------------------------------------------- !
&RUN_NML
  RUN%FLCX         =  T
  RUN%FLCY         =  T
  RUN%FLCTH        =  T
  RUN%FLCK         =  T
/

! -------------------------------------------------------------------- !
! Define the timesteps parameterization via TIMESTEPS_NML namelist
! -------------------------------------------------------------------- !
&TIMESTEPS_NML
  TIMESTEPS%DTMAX        =  360.
  TIMESTEPS%DTXY         =  360.
  TIMESTEPS%DTKTH        =  180.
  TIMESTEPS%DTMIN        =  15.
/

! -------------------------------------------------------------------- !
! Define the grid to preprocess via GRID_NML namelist
! -------------------------------------------------------------------- !
&GRID_NML
  GRID%NAME         =  'The inner grid @ 5 km'
  GRID%NML          =  '../input/namelists_inner.nml'
  GRID%TYPE         =  'RECT'
  GRID%COORD        =  'CART'
  GRID%CLOS         =  'NONE'
  GRID%ZLIM         =  -0.1
  GRID%DMIN         =  0.25
/

! -------------------------------------------------------------------- !
! Define the rectilinear grid type via RECT_NML namelist
! -------------------------------------------------------------------- !
&RECT_NML
  RECT%NX           =  51
  RECT%NY           =  51
  RECT%SX           =  5.E3
  RECT%SY           =  5.E3
  RECT%X0           =  -125.E3
  RECT%Y0           =  -125.E3
/

! -------------------------------------------------------------------- !
! Define the depth to preprocess via DEPTH_NML namelist
! -------------------------------------------------------------------- !
&DEPTH_NML
  DEPTH%SF        =  -250.
  DEPTH%FILENAME  =  '../input/inner.depth'
  DEPTH%IDLA      =  4
/

! -------------------------------------------------------------------- !
! Define the point status map via MASK_NML namelist
! -------------------------------------------------------------------- !
&MASK_NML
  MASK%FILENAME  =  '../input/mask.data'
  MASK%IDLA      =  3
/

! -------------------------------------------------------------------- !
! WAVEWATCH III - end of namelist                                      !
! -------------------------------------------------------------------- !
