! -------------------------------------------------------------------- !
! WAVEWATCH III - ww3_grid.nml - Grid pre-processing                   !
! -------------------------------------------------------------------- !

! -------------------------------------------------------------------- !
! Define the spectrum parameterization via SPECTRUM_NML namelist
! -------------------------------------------------------------------- !
&SPECTRUM_NML
  SPECTRUM%XFR       =  1.03
  SPECTRUM%FREQ1     =  0.075
  SPECTRUM%NK        =  20
  SPECTRUM%NTH       =  24
/

! -------------------------------------------------------------------- !
! Define the run parameterization via RUN_NML namelist
! -------------------------------------------------------------------- !
&RUN_NML
  RUN%FLCX         =  T
/

! -------------------------------------------------------------------- !
! Define the timesteps parameterization via TIMESTEPS_NML namelist
! -------------------------------------------------------------------- !
&TIMESTEPS_NML
  TIMESTEPS%DTMAX        =  720.
  TIMESTEPS%DTXY         =  720.
  TIMESTEPS%DTKTH        =  720.
  TIMESTEPS%DTMIN        =  15.
/

! -------------------------------------------------------------------- !
! Define the grid to preprocess via GRID_NML namelist
! -------------------------------------------------------------------- !
&GRID_NML
  GRID%NAME         =  'The Boundary data grid'
  GRID%NML          =  '../input/namelists_bound.nml'
  GRID%TYPE         =  'RECT'
  GRID%COORD        =  'CART'
  GRID%CLOS         =  'NONE'
  GRID%ZLIM         =  -0.1
  GRID%DMIN         =  0.25
/

! -------------------------------------------------------------------- !
! Define the rectilinear grid type via RECT_NML namelist
! -------------------------------------------------------------------- !
&RECT_NML
  RECT%NX           =  55
  RECT%NY           =  57
  RECT%SX           =  10.E3
  RECT%SY           =  10.E3
  RECT%X0           =  -270.E3
  RECT%Y0           =  -280.E3
/

! -------------------------------------------------------------------- !
! Define the depth to preprocess via DEPTH_NML namelist
! -------------------------------------------------------------------- !
&DEPTH_NML
  DEPTH%SF        =  -250.
  DEPTH%FILENAME  =  '../input/bound.depth'
  DEPTH%IDLA      =  4
/

! -------------------------------------------------------------------- !
! Define the input boundary points via INBND_COUNT_NML and
!                                      INBND_POINT_NML namelist
! -------------------------------------------------------------------- !
&INBND_COUNT_NML
  INBND_COUNT%N_POINT    =  2
/

&INBND_POINT_NML
  INBND_POINT(1)         =  1 2 T
  INBND_POINT(2)         =  1 56 T
/

! -------------------------------------------------------------------- !
! Define the output boundary points via OUTBND_COUNT_NML and
!                                       OUTBND_LINE_NML namelist
! -------------------------------------------------------------------- !
&OUTBND_COUNT_NML
  OUTBND_COUNT%N_LINE   =  3
/

&OUTBND_LINE_NML
  OUTBND_LINE(1)           =  -270.E3 -260.E3 0.E3 10.E3 53
  OUTBND_LINE(2)           =  -270.E3 -270.E3 10.E3 0.E3 54
  OUTBND_LINE(3)           =  -270.E3 270.E3 10.E3 0.E3 54
/

! -------------------------------------------------------------------- !
! WAVEWATCH III - end of namelist                                      !
! -------------------------------------------------------------------- !
