! -------------------------------------------------------------------- !
! WAVEWATCH III - ww3_grid.nml - Grid pre-processing                   !
! -------------------------------------------------------------------- !

! -------------------------------------------------------------------- !
! Define the spectrum parameterization via SPECTRUM_NML namelist
! -------------------------------------------------------------------- !
&SPECTRUM_NML
  SPECTRUM%XFR       =  1.03
  SPECTRUM%FREQ1     =  0.075
  SPECTRUM%NK        =  20
  SPECTRUM%NTH       =  24
/

! -------------------------------------------------------------------- !
! Define the run parameterization via RUN_NML namelist
! -------------------------------------------------------------------- !
&RUN_NML
  RUN%FLCX         =  T
  RUN%FLCY         =  T
  RUN%FLCTH        =  T
/

! -------------------------------------------------------------------- !
! Define the timesteps parameterization via TIMESTEPS_NML namelist
! -------------------------------------------------------------------- !
&TIMESTEPS_NML
  TIMESTEPS%DTMAX        =  720.
  TIMESTEPS%DTXY         =  720.
  TIMESTEPS%DTKTH        =  720.
  TIMESTEPS%DTMIN        =  15.
/

! -------------------------------------------------------------------- !
! Define the grid to preprocess via GRID_NML namelist
! -------------------------------------------------------------------- !
&GRID_NML
  GRID%NAME         =  'The outer grid @ 10 km'
  GRID%NML          =  '../input/namelists_outer.nml'
  GRID%TYPE         =  'RECT'
  GRID%COORD        =  'CART'
  GRID%CLOS         =  'NONE'
  GRID%ZLIM         =  -0.1
  GRID%DMIN         =  0.25
/

! -------------------------------------------------------------------- !
! Define the rectilinear grid type via RECT_NML namelist
! -------------------------------------------------------------------- !
&RECT_NML
  RECT%NX           =  55
  RECT%NY           =  55
  RECT%SX           =  10.E3
  RECT%SY           =  10.E3
  RECT%X0           =  -270.E3
  RECT%Y0           =  -270.E3
/

! -------------------------------------------------------------------- !
! Define the depth to preprocess via DEPTH_NML namelist
! -------------------------------------------------------------------- !
&DEPTH_NML
  DEPTH%SF        =  -250.
  DEPTH%FILENAME  =  '../input/outer.depth'
  DEPTH%IDLA      =  4
/

! -------------------------------------------------------------------- !
! Define the input boundary points via INBND_COUNT_NML and
!                                      INBND_POINT_NML namelist
! -------------------------------------------------------------------- !
&INBND_COUNT_NML
  INBND_COUNT%N_POINT    =  4
/

&INBND_POINT_NML
  INBND_POINT(1)         =  54 1 T
  INBND_POINT(2)         =  1 1 T
  INBND_POINT(3)         =  1 55 T
  INBND_POINT(4)         =  54 55 T
/

! -------------------------------------------------------------------- !
! Define the output boundary points via OUTBND_COUNT_NML and
!                                       OUTBND_LINE_NML namelist
! -------------------------------------------------------------------- !
&OUTBND_COUNT_NML
  OUTBND_COUNT%N_LINE   =  145
/

&OUTBND_LINE_NML
  OUTBND_LINE(1)           =  -125.E3 -25.E3 1.E3 1.E3 1
  OUTBND_LINE(2)           =  -125.E3 -20.E3 1.E3 1.E3 1
  OUTBND_LINE(3)           =  -125.E3 -15.E3 1.E3 1.E3 1
  OUTBND_LINE(4)           =  -125.E3 -10.E3 1.E3 1.E3 1
  OUTBND_LINE(5)           =  -125.E3 -5.E3 1.E3 1.E3 1
  OUTBND_LINE(6)           =  -125.E3 0.E3 1.E3 1.E3 1
  OUTBND_LINE(7)           =  -125.E3 5.E3 1.E3 1.E3 1
  OUTBND_LINE(8)           =  -125.E3 10.E3 1.E3 1.E3 1
  OUTBND_LINE(9)           =  -125.E3 15.E3 1.E3 1.E3 1
  OUTBND_LINE(10)           =  -125.E3 20.E3 1.E3 1.E3 1
  OUTBND_LINE(11)           =  -125.E3 25.E3 1.E3 1.E3 1
  OUTBND_LINE(12)           =  -120.E3 -40.E3 1.E3 1.E3 1
  OUTBND_LINE(13)           =  -120.E3 -35.E3 1.E3 1.E3 1
  OUTBND_LINE(14)           =  -120.E3 -30.E3 1.E3 1.E3 1
  OUTBND_LINE(15)           =  -120.E3 30.E3 1.E3 1.E3 1
  OUTBND_LINE(16)           =  -120.E3 35.E3 1.E3 1.E3 1
  OUTBND_LINE(17)           =  -120.E3 40.E3 1.E3 1.E3 1
  OUTBND_LINE(18)           =  -115.E3 -55.E3 1.E3 1.E3 1
  OUTBND_LINE(19)           =  -115.E3 -50.E3 1.E3 1.E3 1
  OUTBND_LINE(20)           =  -115.E3 -45.E3 1.E3 1.E3 1
  OUTBND_LINE(21)           =  -115.E3 45.E3 1.E3 1.E3 1
  OUTBND_LINE(22)           =  -115.E3 50.E3 1.E3 1.E3 1
  OUTBND_LINE(23)           =  -115.E3 55.E3 1.E3 1.E3 1
  OUTBND_LINE(24)           =  -110.E3 -60.E3 1.E3 1.E3 1
  OUTBND_LINE(25)           =  -110.E3 60.E3 1.E3 1.E3 1
  OUTBND_LINE(26)           =  -105.E3 -70.E3 1.E3 1.E3 1
  OUTBND_LINE(27)           =  -105.E3 -65.E3 1.E3 1.E3 1
  OUTBND_LINE(28)           =  -105.E3 65.E3 1.E3 1.E3 1
  OUTBND_LINE(29)           =  -105.E3 70.E3 1.E3 1.E3 1
  OUTBND_LINE(30)           =  -100.E3 -75.E3 1.E3 1.E3 1
  OUTBND_LINE(31)           =  -100.E3 75.E3 1.E3 1.E3 1
  OUTBND_LINE(32)           =  -95.E3 -85.E3 1.E3 1.E3 1
  OUTBND_LINE(33)           =  -95.E3 -80.E3 1.E3 1.E3 1
  OUTBND_LINE(34)           =  -95.E3 80.E3 1.E3 1.E3 1
  OUTBND_LINE(35)           =  -95.E3 85.E3 1.E3 1.E3 1
  OUTBND_LINE(36)           =  -90.E3 -90.E3 1.E3 1.E3 1
  OUTBND_LINE(37)           =  -90.E3 90.E3 1.E3 1.E3 1
  OUTBND_LINE(38)           =  -85.E3 -95.E3 1.E3 1.E3 1
  OUTBND_LINE(39)           =  -85.E3 95.E3 1.E3 1.E3 1
  OUTBND_LINE(40)           =  -80.E3 -95.E3 1.E3 1.E3 1
  OUTBND_LINE(41)           =  -80.E3 95.E3 1.E3 1.E3 1
  OUTBND_LINE(42)           =  -75.E3 -100.E3 1.E3 1.E3 1
  OUTBND_LINE(43)           =  -75.E3 100.E3 1.E3 1.E3 1
  OUTBND_LINE(44)           =  -70.E3 -105.E3 1.E3 1.E3 1
  OUTBND_LINE(45)           =  -70.E3 105.E3 1.E3 1.E3 1
  OUTBND_LINE(46)           =  -65.E3 -105.E3 1.E3 1.E3 1
  OUTBND_LINE(47)           =  -65.E3 105.E3 1.E3 1.E3 1
  OUTBND_LINE(48)           =  -60.E3 -110.E3 1.E3 1.E3 1
  OUTBND_LINE(49)           =  -60.E3 110.E3 1.E3 1.E3 1
  OUTBND_LINE(50)           =  -55.E3 -115.E3 1.E3 1.E3 1
  OUTBND_LINE(51)           =  -55.E3 115.E3 1.E3 1.E3 1
  OUTBND_LINE(52)           =  -50.E3 -115.E3 1.E3 1.E3 1
  OUTBND_LINE(53)           =  -50.E3 115.E3 1.E3 1.E3 1
  OUTBND_LINE(54)           =  -45.E3 -115.E3 1.E3 1.E3 1
  OUTBND_LINE(55)           =  -45.E3 115.E3 1.E3 1.E3 1
  OUTBND_LINE(56)           =  -40.E3 -120.E3 1.E3 1.E3 1
  OUTBND_LINE(57)           =  -40.E3 120.E3 1.E3 1.E3 1
  OUTBND_LINE(58)           =  -35.E3 -120.E3 1.E3 1.E3 1
  OUTBND_LINE(59)           =  -35.E3 120.E3 1.E3 1.E3 1
  OUTBND_LINE(60)           =  -30.E3 -120.E3 1.E3 1.E3 1
  OUTBND_LINE(61)           =  -30.E3 120.E3 1.E3 1.E3 1
  OUTBND_LINE(62)           =  -25.E3 -125.E3 1.E3 1.E3 1
  OUTBND_LINE(63)           =  -25.E3 125.E3 1.E3 1.E3 1
  OUTBND_LINE(64)           =  -20.E3 -125.E3 1.E3 1.E3 1
  OUTBND_LINE(65)           =  -20.E3 125.E3 1.E3 1.E3 1
  OUTBND_LINE(66)           =  -15.E3 -125.E3 1.E3 1.E3 1
  OUTBND_LINE(67)           =  -15.E3 125.E3 1.E3 1.E3 1
  OUTBND_LINE(68)           =  -10.E3 -125.E3 1.E3 1.E3 1
  OUTBND_LINE(69)           =  -10.E3 125.E3 1.E3 1.E3 1
  OUTBND_LINE(70)           =  -5.E3 -125.E3 1.E3 1.E3 1
  OUTBND_LINE(71)           =  -5.E3 125.E3 1.E3 1.E3 1
  OUTBND_LINE(72)           =  0.E3 -125.E3 1.E3 1.E3 1
  OUTBND_LINE(73)           =  0.E3 125.E3 1.E3 1.E3 1
  OUTBND_LINE(74)           =  5.E3 -125.E3 1.E3 1.E3 1
  OUTBND_LINE(75)           =  5.E3 125.E3 1.E3 1.E3 1
  OUTBND_LINE(76)           =  10.E3 -125.E3 1.E3 1.E3 1
  OUTBND_LINE(77)           =  10.E3 125.E3 1.E3 1.E3 1
  OUTBND_LINE(78)           =  15.E3 -125.E3 1.E3 1.E3 1
  OUTBND_LINE(79)           =  15.E3 125.E3 1.E3 1.E3 1
  OUTBND_LINE(80)           =  20.E3 -125.E3 1.E3 1.E3 1
  OUTBND_LINE(81)           =  20.E3 125.E3 1.E3 1.E3 1
  OUTBND_LINE(82)           =  25.E3 -125.E3 1.E3 1.E3 1
  OUTBND_LINE(83)           =  25.E3 125.E3 1.E3 1.E3 1
  OUTBND_LINE(84)           =  30.E3 -120.E3 1.E3 1.E3 1
  OUTBND_LINE(85)           =  30.E3 120.E3 1.E3 1.E3 1
  OUTBND_LINE(86)           =  35.E3 -120.E3 1.E3 1.E3 1
  OUTBND_LINE(87)           =  35.E3 120.E3 1.E3 1.E3 1
  OUTBND_LINE(88)           =  40.E3 -120.E3 1.E3 1.E3 1
  OUTBND_LINE(89)           =  40.E3 120.E3 1.E3 1.E3 1
  OUTBND_LINE(90)           =  45.E3 -115.E3 1.E3 1.E3 1
  OUTBND_LINE(91)           =  45.E3 115.E3 1.E3 1.E3 1
  OUTBND_LINE(92)           =  50.E3 -115.E3 1.E3 1.E3 1
  OUTBND_LINE(93)           =  50.E3 115.E3 1.E3 1.E3 1
  OUTBND_LINE(94)           =  55.E3 -115.E3 1.E3 1.E3 1
  OUTBND_LINE(95)           =  55.E3 115.E3 1.E3 1.E3 1
  OUTBND_LINE(96)           =  60.E3 -110.E3 1.E3 1.E3 1
  OUTBND_LINE(97)           =  60.E3 110.E3 1.E3 1.E3 1
  OUTBND_LINE(98)           =  65.E3 -105.E3 1.E3 1.E3 1
  OUTBND_LINE(99)           =  65.E3 105.E3 1.E3 1.E3 1
  OUTBND_LINE(100)           =  70.E3 -105.E3 1.E3 1.E3 1
  OUTBND_LINE(101)           =  70.E3 105.E3 1.E3 1.E3 1
  OUTBND_LINE(102)           =  75.E3 -100.E3 1.E3 1.E3 1
  OUTBND_LINE(103)           =  75.E3 100.E3 1.E3 1.E3 1
  OUTBND_LINE(104)           =  80.E3 -95.E3 1.E3 1.E3 1
  OUTBND_LINE(105)           =  80.E3 95.E3 1.E3 1.E3 1
  OUTBND_LINE(106)           =  85.E3 -95.E3 1.E3 1.E3 1
  OUTBND_LINE(107)           =  85.E3 95.E3 1.E3 1.E3 1
  OUTBND_LINE(108)           =  90.E3 -90.E3 1.E3 1.E3 1
  OUTBND_LINE(109)           =  90.E3 90.E3 1.E3 1.E3 1
  OUTBND_LINE(110)           =  95.E3 -85.E3 1.E3 1.E3 1
  OUTBND_LINE(111)           =  95.E3 -80.E3 1.E3 1.E3 1
  OUTBND_LINE(112)           =  95.E3 80.E3 1.E3 1.E3 1
  OUTBND_LINE(113)           =  95.E3 85.E3 1.E3 1.E3 1
  OUTBND_LINE(114)           =  100.E3 -75.E3 1.E3 1.E3 1
  OUTBND_LINE(115)           =  100.E3 75.E3 1.E3 1.E3 1
  OUTBND_LINE(116)           =  105.E3 -70.E3 1.E3 1.E3 1
  OUTBND_LINE(117)           =  105.E3 -65.E3 1.E3 1.E3 1
  OUTBND_LINE(118)           =  105.E3 65.E3 1.E3 1.E3 1
  OUTBND_LINE(119)           =  105.E3 70.E3 1.E3 1.E3 1
  OUTBND_LINE(120)           =  110.E3 -60.E3 1.E3 1.E3 1
  OUTBND_LINE(121)           =  110.E3 60.E3 1.E3 1.E3 1
  OUTBND_LINE(122)           =  115.E3 -55.E3 1.E3 1.E3 1
  OUTBND_LINE(123)           =  115.E3 -50.E3 1.E3 1.E3 1
  OUTBND_LINE(124)           =  115.E3 -45.E3 1.E3 1.E3 1
  OUTBND_LINE(125)           =  115.E3 45.E3 1.E3 1.E3 1
  OUTBND_LINE(126)           =  115.E3 50.E3 1.E3 1.E3 1
  OUTBND_LINE(127)           =  115.E3 55.E3 1.E3 1.E3 1
  OUTBND_LINE(128)           =  120.E3 -40.E3 1.E3 1.E3 1
  OUTBND_LINE(129)           =  120.E3 -35.E3 1.E3 1.E3 1
  OUTBND_LINE(130)           =  120.E3 -30.E3 1.E3 1.E3 1
  OUTBND_LINE(131)           =  120.E3 30.E3 1.E3 1.E3 1
  OUTBND_LINE(132)           =  120.E3 35.E3 1.E3 1.E3 1
  OUTBND_LINE(133)           =  120.E3 40.E3 1.E3 1.E3 1
  OUTBND_LINE(134)           =  125.E3 -25.E3 1.E3 1.E3 1
  OUTBND_LINE(135)           =  125.E3 -20.E3 1.E3 1.E3 1
  OUTBND_LINE(136)           =  125.E3 -15.E3 1.E3 1.E3 1
  OUTBND_LINE(137)           =  125.E3 -10.E3 1.E3 1.E3 1
  OUTBND_LINE(138)           =  125.E3 -5.E3 1.E3 1.E3 1
  OUTBND_LINE(139)           =  125.E3 0.E3 1.E3 1.E3 1
  OUTBND_LINE(140)           =  125.E3 5.E3 1.E3 1.E3 1
  OUTBND_LINE(141)           =  125.E3 10.E3 1.E3 1.E3 1
  OUTBND_LINE(142)           =  125.E3 15.E3 1.E3 1.E3 1
  OUTBND_LINE(143)           =  125.E3 20.E3 1.E3 1.E3 1
  OUTBND_LINE(144)           =  125.E3 25.E3 1.E3 1.E3 1
  OUTBND_LINE(145)           =  0.E3 0.E3 1.E3 1.E3 0
/

! -------------------------------------------------------------------- !
! WAVEWATCH III - end of namelist                                      !
! -------------------------------------------------------------------- !
