$ WAVEWATCH III Initial conditions input file
$ -------------------------------------------
  1
$  fp   sip     thm  ncos xm      six   ym    siy   hmax
$  0.10 0.0025  270. 20 -270.E3  30.E3 0.E3 999.E6  2.50
$  0.10 0.0025  270. 15 -270.E3  30.E3 0.E3 999.E6  2.50
   0.10 0.0025  270. 10 -270.E3  90.E3 0.E3 999.E6  2.50
$  0.10 0.0025  270.  5 -270.E3  30.E3 0.E3 999.E6  2.50
