$ WAVEWATCH III Point output post-processing
$ ------------------------------------------
  19680606 000000  3600. 999
$ 
$ Define points for which output is to be generated. 
  5
$ mandatory end of list : -1
 -1
$
$ ITYPE = 2, Tables of (mean) parameter
  2
$          - Sub-type OTYPE :  2 : Mean wave pars.
$          - Unit number for file, also used in file name.
  2  50
$ 
$ End of input file
