$ WAVEWATCH III Grid preprocessor input file
$ ------------------------------------------
  'The inner grid @  5 km + mount'
$
   1.03 0.075 20 24 0.
$
   F T T T T F
   360.  360.  180.   15.
$
  &PRO2 DTIME = 0. /
  &PRO3 WDTHCG = 0., WDTHTH = 0. /
  &PRO4 RNFAC = 0., RSFAC = 0. /
END OF NAMELISTS
$
   'RECT' F 'NONE'
   51   51
     5.E3    5.E3   1.
  -125.E3 -125.E3   1.
$
  -0.1 0.25  21  1. 3 1 '(....)' 'NAME' '../input/depth.data'
$
   22 3 1 '(....)' 'NAME' '../input/mask.data'
$
   0. 0. 0. 0. 0
$
