$ WAVEWATCH III multi-scale input file
$ ------------------------------------
  3 0 T 2 T T
$
  'points'
$
  'bound'  'no' 'no' 'no' 'no' 'no' 'no' 'no'  1  1  0.00 1.00  F
  'outer'  'no' 'no' 'no' 'no' 'no' 'no' 'no'  2  1  0.00 1.00  F
  'inner'  'no' 'native' 'no' 'no' 'no' 'no' 'no'  3  1  0.00 1.00  F
$
   19680606 000000   19680607 120000
$
     T F
$
   19680606 000000   1200  19680608 000000
$
  N
  DPT CUR HS FP DP DIR SPR WND UST LM
$
   19680606 000000   3600  19680608 000000
    -100.E3    50.E3  'A1'
    -100.E3     0.E3  'A2'
    -100.E3   -50.E3  'A3'
       0.E3   100.E3  'B1'
       0.E3    50.E3  'B2'
       0.E3     0.E3  'B3'
       0.E3   -50.E3  'B4'
       0.E3  -100.E3  'B5'
     100.E3    50.E3  'C1'
     100.E3     0.E3  'C2'
     100.E3   -50.E3  'C3'
    -270.E3     0.E3  'IN'
     300.E3     0.E3  'OUT'
     200.E3   200.E3  'D1'
     200.E3   150.E3  'D2'
     200.E3   100.E3  'D3'
     200.E3    50.E3  'D4'
     200.E3     0.E3  'D5'
     200.E3   -50.E3  'D6'
     200.E3  -100.E3  'D7'
     200.E3  -150.E3  'D8'
     200.E3  -200.E3  'D9'
       0.E3     0.E3  'STOPSTRING'
$
   19680606 000000      0  19680608 000000
   19680606 020000   3600  19680606 020000
   19680606 000000      0  19680608 000000
   19680606 000000      0  19680608 000000
$
  'the_end'  0
$
  'STP'
$
$ End of input file
