$ WAVEWATCH III Grid output post-processing
$ -----------------------------------------
  19680606 000000 3600. 13
$
$
N
HS T01 DIR
$ (9) Numerical diagnostics
$
  1 0
$
  2 12 1 2 2 1 F F F
