$ WAVEWATCH III shell input file
$ ------------------------------
   F T
   F T
   F T
   F F
   F F
   F F
   F
   F
   F
$
   19680606 000000
   19680606 120000
$
   1
$
   19680606 000000    900  19680606 120000
$
N
HS T01 DIR
$
   19680606 000000    900  19680606 120000
      0.    0.  'Point1'
      5.E3  0.  'Point2'
     10.E3  0.  'Point3'
     15.E3  0.  'Point4'
     20.E3  0.  'Point5'
     25.E3  0.  'Point6'
     30.E3  0.  'Point7'
     35.E3  0.  'Point8'
     40.E3  0.  'Point9'
     45.E3  0.  'Point10'
     50.E3  0.  'Point11'
      0.    0.  'STOPSTRING'
   19680606 000000      0  19680606 120000
   19680606 000000      0  19680606 120000
   19680606 000000      0  19680606 120000
   19680606 000000      0  19680606 120000
