$ WAVEWATCH III shell input file
$ ------------------------------
   F T
   F T
   F T
   F
   F
   F
   F
$
   19680606 000000
   19680606 120000
$
   1
$
   19680606 000000    900  19680606 120000
$
N
HS T01 DIR
$
   19680606 000000    900  19680606 120000
      0.    0.  'Point   1 '
      5.E3  0.  'Point   2 '
     10.E3  0.  'Point   3 '
     15.E3  0.  'Point   4 '
     20.E3  0.  'Point   5 '
     25.E3  0.  'Point   6 '
     30.E3  0.  'Point   7 '
     35.E3  0.  'Point   8 '
     40.E3  0.  'Point   9 '
     45.E3  0.  'Point  10 '
     50.E3  0.  'Point  11 '
      0.    0.  'STOPSTRING'
   19680606 000000      0  19680606 120000
   19680606 000000      0  19680606 120000
   19680606 000000      0  19680606 120000
   19680606 000000      0  19680606 120000
