$ -------------------------------------------------------------------- $
$ WAVEWATCH III Grid preprocessor input file                           $
$ -------------------------------------------------------------------- $
$
  'Global 1/12 degree ice grid   '
$
   1.1  0.04118  25  24  0.
   F T T T F T
   3600. 1700. 1800. 30.                              
$
END OF NAMELISTS
$
    'RECT' T 'SMPL'
    4320   2160
    1.  1.  12
    0.04166667   -89.958333333    1.
    -0.1  1.00  20  -1000.  1 1 '(....)' 'NAME' 'iceanl_5m.mask'
$
   10 3 1 '(....)' 'PART' 'dummy'
$
      0   0   F
      0   0   F
      0   0
      0.  0.  0.  0.   0
$
$ -------------------------------------------------------------------- $
$ End of input file                                                    $
$ -------------------------------------------------------------------- $
