$ WAVEWATCH III Initial conditions input file
$ -------------------------------------------
  1
$  fp        sip     thm  ncos xm  six ym  siy hmax
   0.040469  0.0001  180. 200  0. -2.  -45. 2. 2.5
