$ WAVEWATCH III Grid output post-processing
$ -----------------------------------------
  19680601 000000 259200. 3
$
$     F F F F F  T F F F F  F F F F F  F F F F F  F F F F F  F F F F F  F  (OLD form)
$     F F F F F  T F F F F  F F F F F  F F F F F  F F F F F  F F F F F  F  (OLD form)
     F F F F F  F T F F F  F F F F F  F F F F F  F F F F F  F F F F F  F F F F F  F F F F F  F F F F F  F F F F F  F F F (New with Ifremer code +17 Fs)
$
  1 0
$
  1 3 2 2 123 1 T F F
