$ WAVEWATCH III Grid output post-processing
$ -----------------------------------------
  19680601 000000 259200. 3
$
  F F F F F  T F F F F  F F F F F  F F F F F  F F F F F  F F F F F  F
$
  1 0
$
  1 3 1 1 123 1 T F F
