$ -------------------------------------------------------------------- $
$ WAVEWATCH III Grid preprocessor input file                           $
$ -------------------------------------------------------------------- $
  'Alaskan 10 min wave grid      '
$
   1.10  0.035  29  24  0.5
$
   F T T T F T
$
$   900. 275. 450.  15.                              
$  1200. 275. 600.  15.                              
   1800. 275. 900.  15.                              
$
  &MISC CICE0 = 0.25, CICEN = 0.75, FLAGTR = 4 /
END OF NAMELISTS
$
    'RECT' T 'NONE'
    401    187
      1.5    1.     6.
    140.    44.     1.
     -0.1 2.50  20  0.001 1 1 '(....)' 'NAME' 'ak_10m.bot'
                21  0.01  1 1 '(....)' 'NAME' 'ak_10m.obst'
                22        1 1 '(....)' 'NAME' 'ak_10m.mask'
$
      0.  0.  0.  0.  0
$ -------------------------------------------------------------------- $
$ End of input file                                                    $
$ -------------------------------------------------------------------- $
