$ -------------------------------------------------------------------- $
$ WAVEWATCH III Grid preprocessor input file                           $
$ -------------------------------------------------------------------- $
  'Alaskan 4 min wave grid       '
$
   1.10  0.035  29  24  0.5
$
   F T T T F T
$
$   300. 155. 150.  15.                              
$   450. 155. 225.  15.                              
    600. 155. 300.  15.                              
$   900. 155. 450.  15.                              
$
  &MISC CICE0 = 0.25, CICEN = 0.75, FLAGTR = 4 /
END OF NAMELISTS
$
    'RECT' T 'NONE'
    548    391
      2.     1.    15.
    165.    48.     1.
     -0.1 2.50  20  0.001 1 1 '(....)' 'NAME' 'ak_4m.bot'
                21  0.01  1 1 '(....)' 'NAME' 'ak_4m.obst'
                22        1 1 '(....)' 'NAME' 'ak_4m.mask'
$
      0.  0.  0.  0.  0
$ -------------------------------------------------------------------- $
$ End of input file                                                    $
$ -------------------------------------------------------------------- $
