$ -------------------------------------------------------------------- $
$ WAVEWATCH III Grid preprocessor input file                           $
$ -------------------------------------------------------------------- $
  'West Coast 4 min wave grid    '
$
   1.10  0.035  29  24  0.5
$
   F T T T F T
$
$   300. 185. 150.  15.                              
$   450. 185. 225.  15.                              
    600. 185. 300.  15.                              
$   900. 185. 450.  15.                              
$
  &MISC CICE0 = 0.25, CICEN = 0.75, FLAGTR = 4 /
END OF NAMELISTS
$
    'RECT' T 'NONE'
    736    526
      1.     1.    15.
    195.    15.     1.
     -0.1 2.50  20  0.001 1 1 '(....)' 'NAME' 'wc_4m.bot'
                21  0.01  1 1 '(....)' 'NAME' 'wc_4m.obst'
                22        1 1 '(....)' 'NAME' 'wc_4m.mask'
$
      0.  0.  0.  0.  0
$ -------------------------------------------------------------------- $
$ End of input file                                                    $
$ -------------------------------------------------------------------- $
