$ -------------------------------------------------------------------- $
$ WAVEWATCH III Grid preprocessor input file                           $
$ -------------------------------------------------------------------- $
  'NW Atlantic 10 min wave grid  '
$
   1.10  0.035  29  24  0.5
$
   F T T T F T
$
   1800. 410. 900.  15.                              
$
  &MISC CICE0 = 0.25, CICEN = 0.75, FLAGTR = 4 /
END OF NAMELISTS
$
    'RECT' T 'NONE'
    301    331
      1.     1.     6.
    260.     0.     1.
     -0.1 2.50  20  0.001 1 1 '(....)' 'NAME' 'at_10m.bot'
                21  0.01  1 1 '(....)' 'NAME' 'at_10m.obst'
                22        1 1 '(....)' 'NAME' 'at_10m.mask'
$
      0.  0.  0.  0.  0
$ -------------------------------------------------------------------- $
$ End of input file                                                    $
$ -------------------------------------------------------------------- $
