$ -------------------------------------------------------------------- $
$ WAVEWATCH III Grid preprocessor input file                           $
$ -------------------------------------------------------------------- $
$
  'spectral resolution for points'
$
   1.1  0.04118  25  24  0.
   F T T T F T
   3600. 1700. 1800. 30.                              
$
END OF NAMELISTS
$
      'RECT' T 'NONE'
      3      3
      1.     1.     1.
     -1.    -1.     1.
     -0.1  2.50  10  -1000.  2 1 '(....)' 'UNIT' 'dummy'
$
    9*1
$
   10 3 1 '(....)' 'PART' 'dummy'
$
      0   0   F
      0   0   F
      0   0
      0.  0.  0.  0.   0
$
$ -------------------------------------------------------------------- $
$ End of input file                                                    $
$ -------------------------------------------------------------------- $
