$ -------------------------------------------------------------------- $
$ WAVEWATCH III Grid preprocessor input file                           $
$ -------------------------------------------------------------------- $
  'Global 30 min wave grid       '
$
   1.10  0.035  29  24  0.5
$
   F T T T F T
$
$  1800.  480.  900.  30.
$  2400.  480. 1200.  30.
   3600.  480. 1800.  30.
$
  &MISC CICE0 = 0.25, CICEN = 0.75, FLAGTR = 4 /
END OF NAMELISTS
$
    'RECT' T 'SMPL'
    720    311
      0.50   0.50   1.
      0.   -77.5    1.
     -0.1 2.50  20  0.001 1 1 '(....)' 'NAME' 'glo_30m.bot'
                21  0.01  1 1 '(....)' 'NAME' 'glo_30m.obst'
                22        1 1 '(....)' 'NAME' 'glo_30m.mask'
$
      0.  0.  0.  0.  0
$ -------------------------------------------------------------------- $
$ End of input file                                                    $
$ -------------------------------------------------------------------- $
