
                  *** WAVEWATCH III Field output postp. ***   
               ===============================================

  Grid name : 1-D parameterized ice test    

  Fields in file : 
 --------------------------
      Water depth         
      Water level         
      Ice concentration   
      Wave height         
      Mean wave dir. a1b1 
  Comment character is '$'

            Fields   : Water depth         
                       Water level         
                       Ice concentration   
                       Wave height         
                       Mean wave dir. a1b1 

  Output time data : 
 --------------------------------------------------
      First time         : 1968/06/06 00:00:00 UTC
      Interval           :            01:00:00    
      Number of requests :       1000
      Water depth            
      Water level            
      Ice concentration      
      Wave height            
      Mean wave dir. a1b1    
      X range :       1    156
      Y range :       1      3

  Generating files 
 --------------------------------------------------
      Files for 1968/06/06 00:00:00 UTC
NEW NETCDF FILE WAS CREATED ww3.196806.nc                                     
Writing new record dpt      number      1 for 1968:06:06T00:00:00 in file ww3.196806.nc
Writing new record wlv      number      1 for 1968:06:06T00:00:00 in file ww3.196806.nc
Writing new record ice      number      1 for 1968:06:06T00:00:00 in file ww3.196806.nc
Writing new record hs       number      1 for 1968:06:06T00:00:00 in file ww3.196806.nc
Writing new record dir      number      1 for 1968:06:06T00:00:00 in file ww3.196806.nc
      Files for 1968/06/06 01:00:00 UTC
Writing new record dpt      number      2 for 1968:06:06T01:00:00 in file ww3.196806.nc
Writing new record wlv      number      2 for 1968:06:06T01:00:00 in file ww3.196806.nc
Writing new record ice      number      2 for 1968:06:06T01:00:00 in file ww3.196806.nc
Writing new record hs       number      2 for 1968:06:06T01:00:00 in file ww3.196806.nc
Writing new record dir      number      2 for 1968:06:06T01:00:00 in file ww3.196806.nc
      Files for 1968/06/06 02:00:00 UTC
Writing new record dpt      number      3 for 1968:06:06T02:00:00 in file ww3.196806.nc
Writing new record wlv      number      3 for 1968:06:06T02:00:00 in file ww3.196806.nc
Writing new record ice      number      3 for 1968:06:06T02:00:00 in file ww3.196806.nc
Writing new record hs       number      3 for 1968:06:06T02:00:00 in file ww3.196806.nc
Writing new record dir      number      3 for 1968:06:06T02:00:00 in file ww3.196806.nc
      Files for 1968/06/06 03:00:00 UTC
Writing new record dpt      number      4 for 1968:06:06T03:00:00 in file ww3.196806.nc
Writing new record wlv      number      4 for 1968:06:06T03:00:00 in file ww3.196806.nc
Writing new record ice      number      4 for 1968:06:06T03:00:00 in file ww3.196806.nc
Writing new record hs       number      4 for 1968:06:06T03:00:00 in file ww3.196806.nc
Writing new record dir      number      4 for 1968:06:06T03:00:00 in file ww3.196806.nc
      Files for 1968/06/06 04:00:00 UTC
Writing new record dpt      number      5 for 1968:06:06T04:00:00 in file ww3.196806.nc
Writing new record wlv      number      5 for 1968:06:06T04:00:00 in file ww3.196806.nc
Writing new record ice      number      5 for 1968:06:06T04:00:00 in file ww3.196806.nc
Writing new record hs       number      5 for 1968:06:06T04:00:00 in file ww3.196806.nc
Writing new record dir      number      5 for 1968:06:06T04:00:00 in file ww3.196806.nc
      Files for 1968/06/06 05:00:00 UTC
Writing new record dpt      number      6 for 1968:06:06T05:00:00 in file ww3.196806.nc
Writing new record wlv      number      6 for 1968:06:06T05:00:00 in file ww3.196806.nc
Writing new record ice      number      6 for 1968:06:06T05:00:00 in file ww3.196806.nc
Writing new record hs       number      6 for 1968:06:06T05:00:00 in file ww3.196806.nc
Writing new record dir      number      6 for 1968:06:06T05:00:00 in file ww3.196806.nc
      Files for 1968/06/06 06:00:00 UTC
Writing new record dpt      number      7 for 1968:06:06T06:00:00 in file ww3.196806.nc
Writing new record wlv      number      7 for 1968:06:06T06:00:00 in file ww3.196806.nc
Writing new record ice      number      7 for 1968:06:06T06:00:00 in file ww3.196806.nc
Writing new record hs       number      7 for 1968:06:06T06:00:00 in file ww3.196806.nc
Writing new record dir      number      7 for 1968:06:06T06:00:00 in file ww3.196806.nc
      Files for 1968/06/06 07:00:00 UTC
Writing new record dpt      number      8 for 1968:06:06T07:00:00 in file ww3.196806.nc
Writing new record wlv      number      8 for 1968:06:06T07:00:00 in file ww3.196806.nc
Writing new record ice      number      8 for 1968:06:06T07:00:00 in file ww3.196806.nc
Writing new record hs       number      8 for 1968:06:06T07:00:00 in file ww3.196806.nc
Writing new record dir      number      8 for 1968:06:06T07:00:00 in file ww3.196806.nc
      Files for 1968/06/06 08:00:00 UTC
Writing new record dpt      number      9 for 1968:06:06T08:00:00 in file ww3.196806.nc
Writing new record wlv      number      9 for 1968:06:06T08:00:00 in file ww3.196806.nc
Writing new record ice      number      9 for 1968:06:06T08:00:00 in file ww3.196806.nc
Writing new record hs       number      9 for 1968:06:06T08:00:00 in file ww3.196806.nc
Writing new record dir      number      9 for 1968:06:06T08:00:00 in file ww3.196806.nc
      Files for 1968/06/06 09:00:00 UTC
Writing new record dpt      number     10 for 1968:06:06T09:00:00 in file ww3.196806.nc
Writing new record wlv      number     10 for 1968:06:06T09:00:00 in file ww3.196806.nc
Writing new record ice      number     10 for 1968:06:06T09:00:00 in file ww3.196806.nc
Writing new record hs       number     10 for 1968:06:06T09:00:00 in file ww3.196806.nc
Writing new record dir      number     10 for 1968:06:06T09:00:00 in file ww3.196806.nc
      Files for 1968/06/06 10:00:00 UTC
Writing new record dpt      number     11 for 1968:06:06T10:00:00 in file ww3.196806.nc
Writing new record wlv      number     11 for 1968:06:06T10:00:00 in file ww3.196806.nc
Writing new record ice      number     11 for 1968:06:06T10:00:00 in file ww3.196806.nc
Writing new record hs       number     11 for 1968:06:06T10:00:00 in file ww3.196806.nc
Writing new record dir      number     11 for 1968:06:06T10:00:00 in file ww3.196806.nc
      Files for 1968/06/06 11:00:00 UTC
Writing new record dpt      number     12 for 1968:06:06T11:00:00 in file ww3.196806.nc
Writing new record wlv      number     12 for 1968:06:06T11:00:00 in file ww3.196806.nc
Writing new record ice      number     12 for 1968:06:06T11:00:00 in file ww3.196806.nc
Writing new record hs       number     12 for 1968:06:06T11:00:00 in file ww3.196806.nc
Writing new record dir      number     12 for 1968:06:06T11:00:00 in file ww3.196806.nc
      Files for 1968/06/06 12:00:00 UTC
Writing new record dpt      number     13 for 1968:06:06T12:00:00 in file ww3.196806.nc
Writing new record wlv      number     13 for 1968:06:06T12:00:00 in file ww3.196806.nc
Writing new record ice      number     13 for 1968:06:06T12:00:00 in file ww3.196806.nc
Writing new record hs       number     13 for 1968:06:06T12:00:00 in file ww3.196806.nc
Writing new record dir      number     13 for 1968:06:06T12:00:00 in file ww3.196806.nc

      End of file reached 


  End of program 
 =========================================
         WAVEWATCH III Field output 

