$ WAVEWATCH III shell input file
$ ------------------------------
   T F
   T T
   F F
   F F
   T F
   F F
   F F
   F F
   F F
   F F
   F F
   T
   F
   F
   F
$
  20100606 000000
  20100606 030000
$
  1
$
  20100606 000000  300  20100607 000000
$
N
CFX HS LM IC1 IC5 ICE TWI FIC SPR T02
$
   20100606 000000    300  20100612 000000
       0 120000 Point 1
    5000 120000 Point 2
   45000 120000 Point 3
   90000 120000 Point 4
  135000 120000 Point 5
  170000 120000 Point 6
  215000 120000 Point 7
  240000 120000 Point 8
       0 60000  Point 9
    5000 60000  Point 10
   45000 60000  Point 11
   90000 60000  Point 12
  135000 60000  Point 13
  170000 60000  Point 14
  215000 60000  Point 15
  240000 60000  Point 16
       0 180000 Point 17
    5000 180000 Point 18
   45000 180000 Point 19
   90000 180000 Point 20
  135000 180000 Point 21
  170000 180000 Point 22
  215000 180000 Point 23
  240000 180000 Point 24

   0.    0.  'STOPSTRING'
   20100606 000000      0  20100608 000000
   20100606 000000      0  20100607 000000
   20100606 000000      0  20100612 000000
   20100606 000000      0  20100612 000000
$
$ 'IC1' 20100606 000000 2
 'IC2' 20100606 000000 1.83e-6
$  'IC5' 20100606 000000 200
$  'IC3' 20100606 000000 917
$  'IC4' 20100606 000000 1e6
$$  'WND' 20100606 000000 5. 180. 0.
  'STP'




