$ WAVEWATCH III Initial conditions input file
$ -------------------------------------------
$ ITYPE=1,  Gaussian / cosine power spectrum 
  1
$  fp        sip    thm  ncos  xm      six    ym    siy     hmax
  0.04598   0.0001    0. 100 290.0 -0.7500  35.5  0.7500    5.00
