! -------------------------------------------------------------------- !
! WAVEWATCH III ww3_prnc.nml - Field preprocessor                      !
! -------------------------------------------------------------------- !


! -------------------------------------------------------------------- !
! Define the forcing fields to preprocess via FORCING_NML namelist
! -------------------------------------------------------------------- !
&FORCING_NML
/

! -------------------------------------------------------------------- !
! Define the content of the input file via FILE_NML namelist
! -------------------------------------------------------------------- !
&FILE_NML
  FILE%FILENAME      = 2
  FILE%LONGITUDE     = '-1'
  FILE%LATITUDE      = ''
  FILE%VAR(1)        = 'ww3.'
/

! -------------------------------------------------------------------- !
! WAVEWATCH III - end of namelist                                      !
! -------------------------------------------------------------------- !
