$ WAVEWATCH III Initial conditions input file
$ -------------------------------------------
  1
$  fp        sip    thm  ncos xm      six    ym    siy     hmax
   0.060469  0.01   270.  4   214.0 -1.2206  42.5  0.8993  6.0
$  0.040469  0.0001 210. 200  214.0 -1.2206  42.5  0.8993  2.501
$  0.040469  0.0001 210. 200  215.0 -1.2727  45.0  0.8993  2.501
$  0.040469  0.0001 270.  8   0.      -1.    0.    1.      2.5 values for tp2.2
