$ -------------------------------------------------------------------- $
$ WAVEWATCH III Grid output post-processing                            $
$--------------------------------------------------------------------- $
$
  20100101 000000  3600.  3
$
$ Fields requested --------------------------------------------------- $
 N
 HS DIR WND T01 T02 TP PHS PTP
$
$--------------------------------------------------------------------- $
$ netCDF version [3,4]
$        and variable type 4 [2 = SHORT, 3 = it depends , 4 = REAL]
$ swell partitions [0 1 2 3 4 5]
$ variables in same file [T] or not [F] 
$
 3 2
 0 1 2
 F
$
$ -------------------------------------------------------------------- $
$ File prefix
$ number of characters in date [0(nodate),4(yearly),6(monthly),8(daily),10(hourly)]
$ IX and IY ranges [regular:IX NX IY NY, unstructured:IP NP 1 1]
$
 ww3.         
 6
$
$ -------------------------------------------------------------------- $
$ IX, IY range:
 1 11 1 11
$ -------------------------------------------------------------------- $
$ End of input file                                                    $
$ -------------------------------------------------------------------- $
