! -------------------------------------------------------------------- !
! WAVEWATCH III - ww3_ounf.nml - Grid output post-processing           !
! -------------------------------------------------------------------- !

! -------------------------------------------------------------------- !
! Define the output fields to postprocess via FIELD_NML namelist
! -------------------------------------------------------------------- !
&FIELD_NML
  FIELD%TIMESTART        =  '20100101 000000'
  FIELD%TIMESTRIDE       =  '3600'
  FIELD%TIMECOUNT        =  '3'
  FIELD%LIST             =  'HS DIR WND T01 T02 TP PHS PTP'
  FIELD%SAMEFILE         =  F
  FIELD%VECTOR           =  F
  FIELD%TYPE             =  2
  FIELD%FCVARS           =  T
  FIELD%TIMEUNIT         =  'S'
  FIELD%TIMEVAR          =  'I'
  FIELD%TIMEEPOCH        =  '19700101 000000'
  FIELD%MAPSTA           =  F
  FIELD%NOVAL            =  0.0
/

! -------------------------------------------------------------------- !
! Define the content of the output file via FILE_NML namelist
! -------------------------------------------------------------------- !
&FILE_NML
  FILE%NETCDF        = 4
/

! -------------------------------------------------------------------- !
! Define the content of the output file via SMC_NML namelist
! -------------------------------------------------------------------- !
&SMC_NML
/


! -------------------------------------------------------------------- !
! WAVEWATCH III - end of namelist                                      !
! -------------------------------------------------------------------- !

