$ WAVEWATCH III Initial conditions input file
$ -------------------------------------------
  4
$
$ ITYPE = 4 ---------------------------------------------------------- $
$ User-defined spectrum
$ - Scale factor., defaults to 1 if less than or equal 0.
$ - Spectrum F(f,theta) (single read statement)
$
 5.125e-06
$
    0    0    0    0    0    0    0    0    0    0    0    0    0    0    0    0    0    0    0    0    0    0    0    0    0    0    0    0    0    0    0    0
    0    0    0    0    0    0    0    0    0    0    0    0    0    0    0    0    0    0    0    0    0    0    0    0    0    0    0    0    0    0    0    0
    0    0    0    0    0    0    0    0    0    0    0    0    0    0    0    0    0    0    0    0    0    0    0    0    0    0    0    0    0    0    0    0
    0    0    0    0    0    0    0    0    0    0    0    0    0    0    0    0    0    0    0    0    0    0    0    0    0    0    0    0    0    0    0    0
    0    0    0    0    0    0    0    0    0    0    0    0    0    0    0    0    0    0    0    0    0    0    0    0    0    0    0    0    0    0    0    0
    0    0    0    0    0    0    0    0    0    0    0    0    0    0    0    0    0    0    0    0    0    0    0    0    0    0    0    0    0    0    0    0
    0    0    0    0    0    0    0    0    0    0    0    0    0    0    0    0    0    0    0    0    0    0    0    0    0    0    0    0    0    0    0    0
    0    0    0    0    0    0    0    0    0    0    0    0    0    0    0    0    0    0    0    0    0    0    0    0    0    0    0    0    0    0    0    0
    0    0    0    0    0    0    0    0    0    0    0    0    0    0    0    0    0    0    0    0    0    0    0    0    0    0    0    0    0    0    0    0
    0    0    0    0    0    0    0    0    0    0    0    0    0    0    0    0    0    0    0    0    0    0    0    0    0    0    0    0    0    0    0    0
    0    0    0    0    0    0    0    0    0    0    0    0    0    0    0    0    0    0    0    0    0    0    0    0    0    0    0    0    0    0    0    0
    0    0    0    0    0    0    0    0    0    0    0    0    0    0    0    0    0    0    0    0    0    0    0    0    0    0    0    0    0    0    0    0
    0    0    0    0    0    0    0    0    0    0    0    0    0    0    0    0    0    0    0    0    0    0    0    0    0    0    0    0    0    0    0    0
    0    0    0    0    0    0    0    0    0    0    0    0    0    0    0    0    0    0    0    0    0    0    0    0    0    0    0    0    0    0    0    0
    0    0    0    0    0    0    0    0    0    0    0    0    0    0    0    0    0    0    0    0    0    0    0    0    0    0    0    0    0    0    0    0
    0    0    0    0    0    0    0    0    0    0    0    0    0    0    0    0    0    0    0    0    0    0    0    0    0    0    0    0    0    0    0    0
    0    0    0    0    0    0    0    0    0    0    0    0    0    0    0    0    0    0    0    0    0    0    0    0    0    0    0    0    0    0    0    0
    0    0    0    0    0    0    0    0    0    0    0    0    0    0    0    0    0    0    0    0    0    0    0    0    0    0    0    0    0    0    0    0
    0    0    0    0    0    0    0    0    0    0    0    0    0    0    0    0    0    0    0    0    0    0    0    0    0    0    0    0    0    0    0    0
    0    0    0    0    0    0    0    0    0    0    0    0    0    0    0    0    0    0    0    0    0    0    0    0    0    0    0    0    0    0    0    0
    0    0    0    0    0    0    0    0    0    0    0    0    0    0    0    0    0    0    0    0    0    0    0    0    0    0    0    0    0    0    0    0
    0    0    0    0    0    0    0    0    0    0    0    0    0    0    0    0    0    0    0    0    0    0    0    0    0    0    0    0    0    0    0    0
    0    0    0    0    0    0    0    0    0    0    0    0    0    0    0    0    0    0    0    0    0    0    0    0    0    0    0    0    0    0    0    0
    0    0    0    0    0    0    0    0    0    0    0    0    0    0    0    0    0    0    0    0    0    0    0    0    0    0    0    0    0    0    0    0
    0    0    0    0    0    0    0    0    0    0    0    0    0    0    0    0    0    0    0    0    0    0    0    0    0    0    0    0    0    0    0    0
    0    0    0    0    0    0    0    0    0    0    0    0    0    0    0    0    0    0    0    0    0    0    0    0    0    0    0    0    0    0    0    0
    0    0    0    0    0    0    0    0    0    0    0    0    0    0    0    0    0    0    0    0    0    0    0    0    0    0    0    0    0    0    0    0
    0    0    0    0    0    0    0    0    0    0    0    0    0    0    0    0    0    0    0    0    0    0    0    0    0    0    0    0    0    0    0    0
    0    0    0    0    0    0    0    0    0    0    0    0    0    0    0    0    0    0    0    0    0    0    0    0    0    0    0    0    0    0    0    0
    0    0    0    0    0    0    0    0    0    0    0    0    0    0    0    0    0    0    0    0    0    0    0    0    0    0    0    0    0    0    0    0
    0    0    0    0    0    0    0    0    0    0    0    0    0    0    0    0    0    0    0    0    0    0    0    0    0    0    0    0    0    0    0    0
    0    0    0    0    0    0    0    0    0    0    0    0    0    0    0    0    0    0    0    0    0    0    0    0    0    0    0    0    0    0    0    0
    0    0    0    0    0    0    0    0    0    0    0    0    0    0    0    0    0    0    0    0    0    0    0    0    0    0    0    0    0    0    0    0
    0    0    0    0    0    0    0    0    0    0    0    0    0    0    0    0    0    0    0    0    0    0    0    0    0    0    0    0    0    0    0    0
    0    0    0    0    0    0    0    0    0    0    0    0    0    0    0    0    0    0    0    0    0    0    0    0    0    0    0    0    0    0    0    0
    0    0    0    0    0    0    0    0    0    0    0    0    0    0    0    0    0    0    0    0    0    0    0    0    0    0    0    0    0    0    0    0
    0    0    0    0    0    0    0    0    0    0    0    0    0    0    0    0    0    0    0    0    0    0    0    0    0    0    0    0    0    0    0    0
    0    0    0    0    0    0    0    0    0    0    0    0    0    0    0    0    0    0    0    0    0    0    0    0    0    0    0    0    0    0    0    0
    0    0    0    0    0    0    0    0    0    0    0    0    0    0    0    0    0    0    0    0    0    0    0    0    0    0    0    0    0    0    0    0
    0    0    0    0    0    0    0    0    0    0    0    0    0    0    0    0    0    0    0    0    0    0    0    0    0    0    0    0    0    0    0    0
    0    0    0    0    0    0    0    0    0    0    0    0    0    0    0    0    0    0    0    0    0    0    0    0    0    0    0    0    0    0    0    0
    0    0    0    0    0    0    0    0    0    0    0    0    0    0    0    0    0    0    0    0    0    0    0    0    0    0    0    0    0    0    0    0
    0    0    0    0    0    0    0    0    0    0    0    0    0    0    0    0    0    0    0    0    0    0    0    0    0    0    0    0    0    0    0    0
    0    0    0    0    0    0    0    0    0    0    0    0    0    0    0    0    0    0    0    0    0    0    0    0    0    0    0    0    0    0    0    0
    0    0    0    0    0    0    0    0    0    0    0    0    0    0    0    0    0    0    0    0    0    0    0    0    0    0    0    0    0    0    0    0
    0    0    0    0    0    0    0    0    0    0    0    0    0    0    0    0    0    0    0    0    0    0    0    0    0    0    0    0    0    0    0    0
    0    0    0    0    0    0    0    0    0    0    0    0    0    0    0    0    0    0    0    0    0    0    0    0    0    0    0    0    0    0    0    0
    0    0    0    0    0    0    0    0    0    0    0    0    0    0    0    0    0    0    0    0    0    0    0    0    0    0    0    0    0    0    0    0
    0    0    0    0    0    0    0    0    0    0    0    0    0    0    0    0    0    0    0    0    0    0    0    0    0    0    0    0    0    0    0    0
    0    0    0    0    0    0    0    0    0    0    0    0    0    0    0    0    0    0    0    0    0    0    0    0    0    0    0    0    0    0    0    0
    0    0    0    0    0    0    0    0    0    0    0    0    0    0    0    0    0    0    0    0    0    0    0    0    0    0    0    0    0    0    0    0
    0    0    0    0    0    0    0    0    0    0    0    0    0    0    0    0    0    0    0    0    0    0    0    0    0    0    0    0    0    0    0    0
    0    0    0    0    0    0    0    0    0    0    0    0    0    0    0    0    0    0    0    0    0    0    0    0    0    0    0    0    0    0    0    0
    0    0    0    0    0    0    0    0    0    0    0    0    0    0    0    0    0    0    0    0    0    0    0    0    0    0    0    0    0    0    0    0
    0    0    0    0    0    0    0    0    0    0    0    0    0    0    0    0    0    0    0    0    0    0    0    0    0    0    0    0    0    0    0    0
    0    0    0    0    0    0    0    0    0    0    0    0    0    0    0    0    0    0    0    0    0    0    0    0    0    0    0    0    0    0    0    0
    0    0    0    0    0    0    0    0    0    0    0    0    0    0    0    0    0    0    0    0    0    0    0    0    0    0    0    0    0    0    0    0
    0    0    0    0    0    0    0    0    0    0    0    0    0    0    0    0    0    0    0    0    0    0    0    0    0    0    0    0    0    0    0    0
    0    0    0    0    0    0    0    0    0    0    0    0    0    0    0    0    0    0    0    0    0    0    0    0    0    0    0    0    0    0    0    0
    0    0    0    0    0    0    0    0    0    0    0    0    0    0    0    0    0    0    0    0    0    0    0    0    0    0    0    0    0    0    0    0
    0    0    0    0    0    0    0    0    0    0    0    0    0    0    0    0    0    0    0    0    0    0    0    0    0    0    0    0    0    0    0    0
    0    0    0    0    0    0    0    0    0    0    0    0    0    0    0    0    0    0    0    0    0    0    0    0    0    0    0    0    0    0    0    0
    0    0    0    0    0    0    0    0    0    0    0    0    0    0    0    0    0    0    0    0    0    0    0    0    0    0    0    0    0    0    0    0
    0    0    0    0    0    0    0    0    0    0    0    0    0    0    0    0    0    0    0    0    0    0    0    0    0    0    0    0    0    0    0    0
    0    0    0    0    0    0    0    0    0    0    0    0    0    0    0    0    0    0    0    0    0    0    0    0    0    0    0    0    0    0    0    0
    0    0    0    0    0    0    0    0    0    0    0    0    0    0    0    0    0    0    0    0    0    0    0    0    0    0    0    0    0    0    0    0
    0    0    0    0    0    0    0    0    0    0    0    0    0    0    0    0    0    0    0    0    0    0    0    0    0    0    0    0    0    0    0    0
    0    0    0    0    0    0    0    0    0    0    0    0    0    0    0    0    0    0    0    0    0    0    0    0    0    0    0    0    0    0    0    0
    0    0    0    0    0    0    0    0    0    0    0    0    0    0    0    0    0    0    0    0    0    0    0    0    0    0    0    0    0    0    0    0
    0    0    0    0    0    0    0    0    0    0    0    0    0    0    0    0    0    0    0    0    0    0    0    0    0    0    0    0    0    0    0    0
    0    0    0    0    0    0    0    0    0    0    0    0    0    0    0    0    0    0    0    0    0    0    0    0    0    0    0    0    0    0    0    0
    0    0    0    0    0    0    0    0    0    0    0    0    0    0    0    0    0    0    0    0    0    0    0    0    0    0    0    0    0    0    0    0
    0    0    0    0    0    0    0    0    0    0    0    0    0    0    0    0    0    0    0    0    0    0    0    0    0    0    0    0    0    0    0    0
    0    0    0    0    0    0    0    0    0    0    0    0    0    0    0    0    0    0    0    0    0    0    0    0    0    0    0    0    0    0    0    0
    0    0    0    0    0    0    0    0    0    0    0    0    0    0    0    0    0    0    0    0    0    0    0    0    0    0    0    0    0    0    0    0
    0    0    0    0    0    0    0    0    0    0    0    0    0    0    0    0    0    0    0    0    0    0    0    0    0    0    0    0    0    0    0    0
    0    0    0    0    0    0    0    0    0    0    0    0    0    0    0    0    0    0    0    0    0    0    0    0    0    0    0    0    0    0    0    0
    0    0    0    0    0    0    0    0    0    0    0    0    0    0    0    0    0    0    0    0    0    0    0    0    0    0    0    0    0    0    0    0
    0    0    0    0    0    0    0    0    0    0    0    0    0    0    0    0    0    0    0    0    0    0    0    0    0    0    0    0    0    0    0    0
    0    0    0    0    0    0    0    0    0    0    0    0    0    0    0    0    0    0    0    0    0    0    0    0    0    0    0    0    0    0    0    0
    0    0    0    0    0    0    0    0    0    0    0    0    0    0    0    0    0    0    0    0    0    0    0    0    0    0    0    0    0    0    0    0
    0    0    0    0    0    0    0    0    0    0    0    0    0    0    0    0    0    0    0    0    0    0    0    0    0    0    0    0    0    0    0    0
    0    0    0    0    0    0    0    0    0    0    0    0    0    0    0    0    0    0    0    0    0    0    0    0    0    0    0    0    0    0    0    0
    0    0    0    0    0    0    0    0    0    0    0    0    0    0    0    0    0    0    0    0    0    0    0    0    0    0    0    0    0    0    0    0
    0    0    0    0    0    0    0    0    0    0    0    0    0    0    0    0    0    0    0    0    0    0    0    0    0    0    0    0    0    0    0    0
    0    0    0    0    0    0    0    0    0    0    0    0    0    0    0    0    0    0    0    0    0    0    0    0    0    0    0    0    0    0    0    0
    0    0    0    0    0    0    0    0    0    0    0    0    0    0    0    0    0    0    0    0    0    0    0    0    0    0    0    0    0    0    0    0
    0    0    0    0    0    0    0    0    0    0    0    0    0    0    0    0    0    0    0    0    0    0    0    0    0    0    0    0    0    0    0    0
    0    0    0    0    0    0    0    0    0    0    0    0    0    0    0    0    0    0    0    0    0    0    0    0    0    0    0    0    0    0    0    0
    0    0    0    0    0    0    0    0    0    0    0    0    0    0    0    0    0    0    0    0    0    0    0    0    0    0    0    0    0    0    0    0
    0    0    0    0    0    0    0    0    0    0    0    0    0    0    0    0    0    0    0    0    0    0    0    0    0    0    0    0    0    0    0    0
    0    0    0    0    0    0    0    0    0    0    0    0    0    0    0    1    2    3    3    3    2    2    1    1    0    0    0    0    0    0    0    0
    0    0    0    0    0    0    0    0    0    0    0    0    0    0    1    4    8   11   12   11    9    6    4    3    2    1    1    0    0    0    0    0
    0    0    0    0    0    0    0    0    0    0    0    0    0    0    2    9   18   25   27   24   20   14   10    7    4    3    2    1    1    0    0    0
    0    0    0    0    0    0    0    0    0    0    0    0    0    0    4   15   32   45   48   43   35   25   18   12    8    5    3    2    1    1    0    0
    0    0    0    0    0    0    0    0    0    0    0    0    0    1    7   24   50   70   75   68   54   40   28   18   12    8    5    3    2    1    1    0
    0    0    0    0    0    0    0    0    0    0    0    0    0    1    9   35   71  100  108   98   78   57   40   27   17   11    7    4    3    2    1    1
    0    0    0    0    0    0    0    0    0    0    0    0    0    2   13   47   97  136  147  133  106   78   54   36   24   15   10    6    4    2    1    1
    0    0    0    0    0    0    0    0    0    0    0    0    0    2   17   61  127  178  192  173  138  101   70   47   31   20   12    8    5    3    2    1
    0    0    0    0    0    0    0    0    0    0    0    0    0    2   21   77  160  225  242  218  174  128   89   60   39   25   16   10    6    4    2    1
    0    0    0    0    0    0    0    0    0    0    0    0    0    3   26   95  197  277  299  269  215  158  110   73   48   31   19   12    8    5    3    2
    0    0    0    0    0    0    0    0    0    0    0    0    0    4   31  115  238  334  360  325  259  191  133   89   58   37   23   15    9    6    4    2
    0    0    0    0    0    0    0    0    0    0    0    0    0    4   37  137  283  397  428  386  308  226  157  105   69   44   28   17   11    7    4    3
    0    0    0    0    0    0    0    0    0    0    0    0    0    5   44  160  331  464  501  452  361  265  184  123   80   51   33   20   13    8    5    3
    0    0    0    0    0    0    0    0    0    0    0    0    0    6   50  185  383  537  579  523  417  307  213  142   93   59   38   24   15    9    6    4
    0    0    0    0    0    0    0    0    0    0    0    0    0    7   58  212  438  615  663  598  477  351  244  163  106   68   43   27   17   10    7    4
    0    0    0    0    0    0    0    0    0    0    0    0    0    8   65  240  497  697  752  678  542  398  277  185  121   77   49   31   19   12    7    5
    0    0    0    0    0    0    0    0    0    0    0    0    0    9   74  270  559  785  846  763  609  448  311  208  136   87   55   34   22   13    8    5
    0    0    0    0    0    0    0    0    0    0    0    0    0   10   82  302  624  877  945  853  681  500  348  232  151   97   61   39   24   15    9    6
    0    0    0    0    0    0    0    0    0    0    0    0    0   11   91  335  693  973 1049  946  755  555  386  258  168  108   68   43   27   17   10    6
    0    0    0    0    0    0    0    0    0    0    0    0    0   12  101  369  765 1074 1158 1044  834  613  426  285  186  119   75   47   29   18   11    7
    0    0    0    0    0    0    0    0    0    0    0    0    0   13  111  406  840 1179 1272 1147  915  673  467  313  204  130   83   52   32   20   12    8
    0    0    0    0    0    0    0    0    0    0    0    0    0   14  121  443  917 1288 1389 1253 1000  735  511  342  223  143   90   57   35   22   14    8
    0    0    0    0    0    0    0    0    0    0    0    0    1   15  132  482  998 1401 1512 1363 1088  800  556  372  242  155   98   62   38   24   15    9
    0    0    0    0    0    0    0    0    0    0    0    0    1   17  143  522 1081 1519 1638 1477 1179  867  602  403  262  168  106   67   42   26   16   10
    0    0    0    0    0    0    0    0    0    0    0    0    1   18  154  564 1168 1639 1768 1595 1273  936  650  435  283  181  115   72   45   28   17   11
    0    0    0    0    0    0    0    0    0    0    0    0    1   19  166  607 1256 1764 1903 1716 1370 1007  699  468  305  195  123   77   48   30   19   12
    0    0    0    0    0    0    0    0    0    0    0    0    1   21  178  651 1347 1892 2041 1840 1469 1080  750  502  327  209  132   83   52   32   20   12
    0    0    0    0    0    0    0    0    0    0    0    0    1   22  190  696 1441 2023 2182 1968 1571 1155  802  537  350  224  142   89   55   34   21   13
    0    0    0    0    0    0    0    0    0    0    0    0    1   24  202  742 1536 2157 2327 2098 1675 1231  855  572  373  239  151   95   59   37   23   14
    0    0    0    0    0    0    0    0    0    0    0    0    1   25  215  789 1634 2295 2475 2232 1782 1310  910  609  397  254  161  101   63   39   24   15
    0    0    0    0    0    0    0    0    0    0    0    0    1   27  229  838 1734 2435 2626 2368 1891 1390  966  646  421  269  170  107   67   42   26   16
    0    0    0    0    0    0    0    0    0    0    0    0    1   28  242  887 1836 2578 2780 2507 2001 1471 1022  684  445  285  180  113   71   44   27   17
    0    0    0    0    0    0    0    0    0    0    0    0    1   30  256  937 1939 2723 2937 2648 2114 1554 1080  722  471  301  191  120   75   46   29   18
    0    0    0    0    0    0    0    0    0    0    0    0    1   32  269  987 2044 2870 3096 2792 2229 1638 1138  761  496  318  201  126   79   49   30   19
    0    0    0    0    0    0    0    0    0    0    0    0    1   33  283 1039 2151 3020 3257 2937 2345 1723 1197  801  522  334  211  133   83   51   32   20
    0    0    0    0    0    0    0    0    0    0    0    0    1   35  298 1091 2259 3171 3421 3084 2462 1810 1258  841  548  351  222  139   87   54   34   21
    0    0    0    0    0    0    0    0    0    0    0    0    1   37  312 1144 2368 3325 3586 3233 2581 1897 1318  882  575  368  233  146   91   57   35   22
    0    0    0    0    0    0    0    0    0    0    0    0    1   38  327 1197 2478 3479 3753 3384 2702 1986 1380  923  601  385  244  153   95   59   37   23
    0    0    0    0    0    0    0    0    0    0    0    0    1   40  341 1251 2589 3635 3921 3536 2823 2075 1442  964  628  402  254  160  100   62   38   24
    0    0    0    0    0    0    0    0    0    0    0    0    1   42  356 1305 2701 3793 4091 3689 2945 2164 1504 1006  655  420  266  167  104   65   40   25
    0    0    0    0    0    0    0    0    0    0    0    0    1   44  371 1359 2814 3951 4262 3843 3068 2255 1567 1048  683  437  277  174  108   67   42   26
    0    0    0    0    0    0    0    0    0    0    0    0    2   45  386 1414 2927 4110 4433 3997 3191 2345 1630 1090  710  455  288  181  113   70   43   27
    0    0    0    0    0    0    0    0    0    0    0    0    2   47  401 1469 3041 4269 4605 4152 3315 2437 1693 1132  738  472  299  188  117   73   45   28
    0    0    0    0    0    0    0    0    0    0    0    0    2   49  416 1524 3155 4429 4778 4308 3439 2528 1756 1175  765  490  310  195  121   76   47   29
    0    0    0    0    0    0    0    0    0    0    0    0    2   51  431 1579 3269 4590 4950 4464 3564 2619 1820 1217  793  508  321  202  126   78   49   30
    0    0    0    0    0    0    0    0    0    0    0    0    2   52  446 1634 3383 4750 5123 4620 3688 2711 1883 1260  821  526  333  209  130   81   50   31
    0    0    0    0    0    0    0    0    0    0    0    0    2   54  461 1689 3497 4910 5296 4775 3812 2802 1947 1302  848  543  344  216  135   84   52   32
    0    0    0    0    0    0    0    0    0    0    0    0    2   56  476 1744 3610 5069 5468 4930 3936 2893 2010 1344  876  561  355  223  139   86   54   33
    0    0    0    0    0    0    0    0    0    0    0    0    2   58  491 1799 3723 5228 5639 5085 4060 2984 2073 1387  904  579  366  230  143   89   55   34
    0    0    0    0    0    0    0    0    0    0    0    0    2   59  506 1853 3836 5387 5810 5239 4183 3074 2136 1428  931  596  377  237  148   92   57   35
    0    0    0    0    0    0    0    0    0    0    0    0    2   61  520 1907 3948 5544 5980 5392 4305 3164 2198 1470  958  613  388  244  152   95   59   36
    0    0    0    0    0    0    0    0    0    0    0    0    2   63  535 1961 4059 5700 6148 5544 4426 3253 2260 1512  985  631  399  250  156   97   60   37
    0    0    0    0    0    0    0    0    0    0    0    0    2   65  549 2014 4170 5855 6315 5694 4546 3341 2322 1553 1012  648  410  257  161  100   62   38
    0    0    0    0    0    0    0    0    0    0    0    0    2   66  564 2067 4279 6008 6480 5843 4665 3429 2382 1593 1038  665  421  264  165  102   64   39
    0    0    0    0    0    0    0    0    0    0    0    0    2   68  578 2119 4386 6159 6644 5991 4783 3515 2442 1633 1064  682  431  271  169  105   65   40
    0    0    0    0    0    0    0    0    0    0    0    0    2   70  592 2170 4493 6309 6805 6136 4899 3600 2502 1673 1090  698  442  277  173  108   67   41
    0    0    0    0    0    0    0    0    0    0    0    0    2   71  606 2221 4598 6456 6964 6279 5013 3685 2560 1712 1116  714  452  284  177  110   68   42
    0    0    0    0    0    0    0    0    0    0    0    0    2   73  620 2271 4701 6602 7121 6421 5126 3767 2618 1751 1141  730  462  290  181  113   70   43
    0    0    0    0    0    0    0    0    0    0    0    0    3   74  633 2320 4803 6744 7275 6559 5237 3849 2674 1789 1166  746  472  296  185  115   71   44
    0    0    0    0    0    0    0    0    0    0    0    0    3   76  646 2368 4903 6884 7426 6696 5346 3929 2730 1826 1190  762  482  302  189  117   73   45
    0    0    0    0    0    0    0    0    0    0    0    0    3   78  659 2416 5001 7022 7574 6829 5452 4007 2784 1862 1213  777  492  308  193  120   74   46
    0    0    0    0    0    0    0    0    0    0    0    0    3   79  672 2462 5096 7156 7719 6960 5556 4084 2838 1898 1237  792  501  314  196  122   76   47
    0    0    0    0    0    0    0    0    0    0    0    0    3   80  684 2507 5190 7287 7860 7088 5658 4159 2890 1933 1259  806  510  320  200  124   77   48
    0    0    0    0    0    0    0    0    0    0    0    0    3   82  696 2551 5281 7415 7998 7212 5758 4232 2940 1966 1281  821  519  326  203  126   78   49
    0    0    0    0    0    0    0    0    0    0    0    0    3   83  708 2594 5370 7540 8133 7333 5854 4303 2990 1999 1303  834  528  331  207  129   80   49
    0    0    0    0    0    0    0    0    0    0    0    0    3   85  719 2635 5456 7661 8263 7451 5948 4372 3038 2032 1324  848  536  337  210  131   81   50
    0    0    0    0    0    0    0    0    0    0    0    0    3   86  730 2676 5539 7778 8389 7565 6039 4439 3084 2063 1344  861  544  342  213  133   82   51
    0    0    0    0    0    0    0    0    0    0    0    0    3   87  741 2715 5620 7891 8512 7675 6127 4503 3129 2093 1364  873  552  347  216  135   83   52
    0    0    0    0    0    0    0    0    0    0    0    0    3   88  751 2752 5698 8000 8629 7781 6212 4566 3172 2122 1383  885  560  351  219  136   85   52
    0    0    0    0    0    0    0    0    0    0    0    0    3   90  761 2788 5772 8105 8743 7883 6294 4626 3214 2149 1401  897  567  356  222  138   86   53
    0    0    0    0    0    0    0    0    0    0    0    0    3   91  770 2823 5844 8206 8852 7981 6372 4683 3254 2176 1418  908  574  361  225  140   87   54
    0    0    0    0    0    0    0    0    0    0    0    0    3   92  779 2856 5913 8303 8956 8075 6447 4738 3292 2202 1435  919  581  365  228  142   88   54
    0    0    0    0    0    0    0    0    0    0    0    0    3   93  788 2888 5978 8394 9055 8165 6518 4791 3329 2226 1451  929  588  369  230  143   89   55
    0    0    0    0    0    0    0    0    0    0    0    0    3   94  796 2918 6040 8482 9149 8249 6586 4840 3363 2249 1466  939  594  373  233  145   90   56
    0    0    0    0    0    0    0    0    0    0    0    0    3   95  804 2946 6099 8564 9238 8330 6650 4888 3396 2271 1480  948  600  376  235  146   91   56
    0    0    0    0    0    0    0    0    0    0    0    0    3   95  811 2973 6155 8642 9322 8405 6710 4932 3427 2292 1493  956  605  380  237  147   91   57
    0    0    0    0    0    0    0    0    0    0    0    0    3   96  818 2998 6206 8715 9400 8476 6767 4973 3456 2311 1506  964  610  383  239  149   92   57
    0    0    0    0    0    0    0    0    0    0    0    0    3   97  824 3021 6255 8782 9473 8542 6819 5012 3482 2329 1518  972  615  386  241  150   93   57
    0    0    0    0    0    0    0    0    0    0    0    0    3   98  830 3043 6299 8845 9541 8603 6868 5048 3507 2346 1529  979  619  389  243  151   94   58
    0    0    0    0    0    0    0    0    0    0    0    0    3   98  836 3063 6340 8902 9602 8658 6912 5081 3530 2361 1538  985  623  391  244  152   94   58
    0    0    0    0    0    0    0    0    0    0    0    0    3   99  840 3081 6377 8955 9659 8709 6953 5110 3551 2375 1548  991  627  393  246  153   95   59
    0    0    0    0    0    0    0    0    0    0    0    0    3   99  845 3097 6411 9001 9709 8755 6989 5137 3569 2387 1556  996  630  395  247  153   95   59
    0    0    0    0    0    0    0    0    0    0    0    0    3  100  849 3111 6440 9043 9754 8795 7022 5161 3586 2398 1563 1001  633  397  248  154   96   59
    0    0    0    0    0    0    0    0    0    0    0    0    3  100  852 3123 6466 9079 9793 8830 7050 5181 3600 2408 1569 1005  636  399  249  155   96   59
    0    0    0    0    0    0    0    0    0    0    0    0    3  101  855 3134 6488 9109 9826 8860 7073 5199 3612 2416 1574 1008  638  400  250  155   96   60
    0    0    0    0    0    0    0    0    0    0    0    0    3  101  857 3142 6505 9134 9853 8884 7093 5213 3622 2422 1579 1011  639  401  250  156   97   60
    0    0    0    0    0    0    0    0    0    0    0    0    3  101  859 3149 6519 9154 9874 8903 7108 5224 3630 2428 1582 1013  641  402  251  156   97   60
    0    0    0    0    0    0    0    0    0    0    0    0    3  101  860 3154 6529 9168 9889 8917 7119 5232 3635 2431 1584 1014  642  403  251  156   97   60
    0    0    0    0    0    0    0    0    0    0    0    0    3  101  861 3157 6535 9176 9898 8925 7125 5237 3639 2434 1586 1015  642  403  252  156   97   60
    0    0    0    0    0    0    0    0    0    0    0    0    3  101  861 3158 6537 9179 9901 8928 7127 5238 3640 2434 1586 1016  643  403  252  156   97   60
    0    0    0    0    0    0    0    0    0    0    0    0    3  101  861 3157 6535 9176 9898 8925 7125 5237 3639 2434 1586 1015  642  403  252  156   97   60
    0    0    0    0    0    0    0    0    0    0    0    0    3  101  860 3154 6529 9168 9889 8917 7119 5232 3635 2431 1584 1014  642  403  251  156   97   60
    0    0    0    0    0    0    0    0    0    0    0    0    3  101  859 3149 6519 9154 9874 8903 7108 5224 3630 2428 1582 1013  641  402  251  156   97   60
    0    0    0    0    0    0    0    0    0    0    0    0    3  101  857 3142 6505 9134 9853 8884 7093 5213 3622 2422 1579 1011  639  401  250  156   97   60
    0    0    0    0    0    0    0    0    0    0    0    0    3  101  855 3134 6488 9109 9826 8860 7073 5199 3612 2416 1574 1008  638  400  250  155   96   60
    0    0    0    0    0    0    0    0    0    0    0    0    3  100  852 3123 6466 9079 9793 8830 7050 5181 3600 2408 1569 1005  636  399  249  155   96   59
    0    0    0    0    0    0    0    0    0    0    0    0    3  100  849 3111 6440 9043 9754 8795 7022 5161 3586 2398 1563 1001  633  397  248  154   96   59
    0    0    0    0    0    0    0    0    0    0    0    0    3   99  845 3097 6411 9001 9709 8755 6989 5137 3569 2387 1556  996  630  395  247  153   95   59
    0    0    0    0    0    0    0    0    0    0    0    0    3   99  840 3081 6377 8955 9659 8709 6953 5110 3551 2375 1548  991  627  393  246  153   95   59
    0    0    0    0    0    0    0    0    0    0    0    0    3   98  836 3063 6340 8902 9602 8658 6912 5081 3530 2361 1538  985  623  391  244  152   94   58
    0    0    0    0    0    0    0    0    0    0    0    0    3   98  830 3043 6299 8845 9541 8603 6868 5048 3507 2346 1529  979  619  389  243  151   94   58
    0    0    0    0    0    0    0    0    0    0    0    0    3   97  824 3021 6255 8782 9473 8542 6819 5012 3482 2329 1518  972  615  386  241  150   93   57
    0    0    0    0    0    0    0    0    0    0    0    0    3   96  818 2998 6206 8715 9400 8476 6767 4973 3456 2311 1506  964  610  383  239  149   92   57
    0    0    0    0    0    0    0    0    0    0    0    0    3   95  811 2973 6155 8642 9322 8405 6710 4932 3427 2292 1493  956  605  380  237  147   91   57
    0    0    0    0    0    0    0    0    0    0    0    0    3   95  804 2946 6099 8564 9238 8330 6650 4888 3396 2271 1480  948  600  376  235  146   91   56
    0    0    0    0    0    0    0    0    0    0    0    0    3   94  796 2918 6040 8482 9149 8249 6586 4840 3363 2249 1466  939  594  373  233  145   90   56
    0    0    0    0    0    0    0    0    0    0    0    0    3   93  788 2888 5978 8395 9055 8165 6518 4791 3329 2226 1451  929  588  369  230  143   89   55
    0    0    0    0    0    0    0    0    0    0    0    0    3   92  779 2856 5913 8303 8956 8075 6447 4738 3292 2202 1435  919  581  365  228  142   88   54
    0    0    0    0    0    0    0    0    0    0    0    0    3   91  770 2823 5844 8206 8852 7981 6372 4683 3254 2176 1418  908  574  361  225  140   87   54
    0    0    0    0    0    0    0    0    0    0    0    0    3   90  761 2788 5772 8105 8743 7883 6294 4626 3214 2149 1401  897  567  356  222  138   86   53
    0    0    0    0    0    0    0    0    0    0    0    0    3   88  751 2752 5698 8000 8629 7781 6212 4566 3172 2122 1383  885  560  351  219  136   85   52
    0    0    0    0    0    0    0    0    0    0    0    0    3   87  741 2715 5620 7891 8512 7675 6127 4503 3129 2093 1364  873  552  347  216  135   83   52
    0    0    0    0    0    0    0    0    0    0    0    0    3   86  730 2676 5539 7778 8389 7565 6039 4439 3084 2063 1344  861  544  342  213  133   82   51
    0    0    0    0    0    0    0    0    0    0    0    0    3   85  719 2635 5456 7661 8263 7451 5948 4372 3038 2032 1324  848  536  337  210  131   81   50
    0    0    0    0    0    0    0    0    0    0    0    0    3   83  708 2594 5370 7540 8133 7333 5854 4303 2990 1999 1303  834  528  331  207  129   80   49
    0    0    0    0    0    0    0    0    0    0    0    0    3   82  696 2551 5281 7415 7998 7212 5758 4232 2940 1966 1281  821  519  326  203  126   78   49
    0    0    0    0    0    0    0    0    0    0    0    0    3   80  684 2507 5190 7287 7860 7088 5658 4159 2890 1933 1259  806  510  320  200  124   77   48
    0    0    0    0    0    0    0    0    0    0    0    0    3   79  672 2462 5096 7156 7719 6960 5556 4084 2838 1898 1237  792  501  314  196  122   76   47
    0    0    0    0    0    0    0    0    0    0    0    0    3   78  659 2416 5001 7022 7574 6829 5452 4007 2784 1862 1213  777  492  308  193  120   74   46
    0    0    0    0    0    0    0    0    0    0    0    0    3   76  646 2368 4903 6884 7426 6696 5346 3929 2730 1826 1190  762  482  302  189  117   73   45
    0    0    0    0    0    0    0    0    0    0    0    0    3   74  633 2320 4803 6744 7275 6559 5237 3849 2674 1789 1166  746  472  296  185  115   71   44
    0    0    0    0    0    0    0    0    0    0    0    0    2   73  620 2271 4701 6602 7121 6421 5126 3767 2618 1751 1141  730  462  290  181  113   70   43
    0    0    0    0    0    0    0    0    0    0    0    0    2   71  606 2221 4598 6456 6964 6279 5013 3685 2560 1712 1116  714  452  284  177  110   68   42
    0    0    0    0    0    0    0    0    0    0    0    0    2   70  592 2170 4493 6309 6805 6136 4899 3600 2502 1673 1090  698  442  277  173  108   67   41
    0    0    0    0    0    0    0    0    0    0    0    0    2   68  578 2119 4386 6159 6644 5991 4783 3515 2442 1633 1064  682  431  271  169  105   65   40
    0    0    0    0    0    0    0    0    0    0    0    0    2   66  564 2067 4279 6008 6480 5843 4665 3429 2382 1593 1038  665  421  264  165  102   64   39
    0    0    0    0    0    0    0    0    0    0    0    0    2   65  549 2014 4170 5855 6315 5694 4546 3341 2322 1553 1012  648  410  257  161  100   62   38
    0    0    0    0    0    0    0    0    0    0    0    0    2   63  535 1961 4059 5700 6148 5544 4426 3253 2260 1512  985  631  399  250  156   97   60   37
    0    0    0    0    0    0    0    0    0    0    0    0    2   61  520 1907 3948 5544 5980 5392 4305 3164 2198 1470  958  613  388  244  152   95   59   36
    0    0    0    0    0    0    0    0    0    0    0    0    2   59  506 1853 3836 5387 5810 5239 4183 3074 2136 1428  931  596  377  237  148   92   57   35
    0    0    0    0    0    0    0    0    0    0    0    0    2   58  491 1799 3723 5228 5639 5085 4060 2984 2073 1387  904  579  366  230  143   89   55   34
    0    0    0    0    0    0    0    0    0    0    0    0    2   56  476 1744 3610 5069 5468 4930 3936 2893 2010 1344  876  561  355  223  139   86   54   33
    0    0    0    0    0    0    0    0    0    0    0    0    2   54  461 1689 3497 4910 5296 4775 3812 2802 1947 1302  848  543  344  216  135   84   52   32
    0    0    0    0    0    0    0    0    0    0    0    0    2   52  446 1634 3383 4750 5123 4620 3688 2711 1883 1260  821  526  333  209  130   81   50   31
    0    0    0    0    0    0    0    0    0    0    0    0    2   51  431 1579 3269 4590 4950 4464 3564 2619 1820 1217  793  508  321  202  126   78   49   30
    0    0    0    0    0    0    0    0    0    0    0    0    2   49  416 1524 3155 4429 4778 4308 3439 2528 1756 1175  765  490  310  195  121   76   47   29
    0    0    0    0    0    0    0    0    0    0    0    0    2   47  401 1469 3041 4269 4605 4152 3315 2437 1693 1132  738  472  299  188  117   73   45   28
    0    0    0    0    0    0    0    0    0    0    0    0    2   45  386 1414 2927 4110 4433 3997 3191 2345 1630 1090  710  455  288  181  113   70   43   27
    0    0    0    0    0    0    0    0    0    0    0    0    1   44  371 1359 2814 3951 4262 3843 3068 2255 1567 1048  683  437  277  174  108   67   42   26
    0    0    0    0    0    0    0    0    0    0    0    0    1   42  356 1305 2701 3793 4091 3689 2945 2164 1504 1006  655  420  266  167  104   65   40   25
    0    0    0    0    0    0    0    0    0    0    0    0    1   40  341 1251 2589 3635 3921 3536 2823 2075 1442  964  628  402  254  160  100   62   38   24
    0    0    0    0    0    0    0    0    0    0    0    0    1   38  327 1197 2478 3479 3753 3384 2702 1986 1380  923  601  385  244  153   95   59   37   23
    0    0    0    0    0    0    0    0    0    0    0    0    1   37  312 1144 2368 3325 3586 3233 2581 1897 1318  882  575  368  233  146   91   57   35   22
    0    0    0    0    0    0    0    0    0    0    0    0    1   35  298 1091 2259 3171 3421 3084 2462 1810 1258  841  548  351  222  139   87   54   34   21
    0    0    0    0    0    0    0    0    0    0    0    0    1   33  283 1039 2151 3020 3257 2937 2345 1723 1197  801  522  334  211  133   83   51   32   20
    0    0    0    0    0    0    0    0    0    0    0    0    1   32  269  987 2044 2870 3096 2792 2229 1638 1138  761  496  318  201  126   79   49   30   19
    0    0    0    0    0    0    0    0    0    0    0    0    1   30  256  937 1939 2723 2937 2648 2114 1554 1080  722  471  301  191  120   75   46   29   18
    0    0    0    0    0    0    0    0    0    0    0    0    1   28  242  887 1836 2578 2780 2507 2001 1471 1022  684  445  285  180  113   71   44   27   17
    0    0    0    0    0    0    0    0    0    0    0    0    1   27  229  838 1734 2435 2626 2368 1891 1390  966  646  421  269  170  107   67   42   26   16
    0    0    0    0    0    0    0    0    0    0    0    0    1   25  215  789 1634 2295 2475 2232 1782 1310  910  609  397  254  161  101   63   39   24   15
    0    0    0    0    0    0    0    0    0    0    0    0    1   24  202  742 1536 2157 2327 2098 1675 1231  855  572  373  239  151   95   59   37   23   14
    0    0    0    0    0    0    0    0    0    0    0    0    1   22  190  696 1441 2023 2182 1968 1571 1155  802  537  350  224  142   89   55   34   21   13
    0    0    0    0    0    0    0    0    0    0    0    0    1   21  178  651 1347 1892 2041 1840 1469 1080  750  502  327  209  132   83   52   32   20   12
    0    0    0    0    0    0    0    0    0    0    0    0    1   19  166  607 1256 1764 1903 1716 1370 1007  699  468  305  195  123   77   48   30   19   12
    0    0    0    0    0    0    0    0    0    0    0    0    1   18  154  564 1168 1639 1768 1595 1273  936  650  435  283  181  115   72   45   28   17   11
    0    0    0    0    0    0    0    0    0    0    0    0    1   17  143  522 1081 1519 1638 1477 1179  867  602  403  262  168  106   67   42   26   16   10
    0    0    0    0    0    0    0    0    0    0    0    0    1   15  132  482  998 1401 1512 1363 1088  800  556  372  242  155   98   62   38   24   15    9
    0    0    0    0    0    0    0    0    0    0    0    0    0   14  121  443  917 1288 1389 1253 1000  735  511  342  223  143   90   57   35   22   14    8
    0    0    0    0    0    0    0    0    0    0    0    0    0   13  111  406  840 1179 1272 1147  915  673  467  313  204  130   83   52   32   20   12    8
    0    0    0    0    0    0    0    0    0    0    0    0    0   12  101  369  765 1074 1158 1044  834  613  426  285  186  119   75   47   29   18   11    7
    0    0    0    0    0    0    0    0    0    0    0    0    0   11   91  335  693  973 1049  946  755  555  386  258  168  108   68   43   27   17   10    6
    0    0    0    0    0    0    0    0    0    0    0    0    0   10   82  302  624  877  945  853  681  500  348  232  151   97   61   39   24   15    9    6
    0    0    0    0    0    0    0    0    0    0    0    0    0    9   74  270  559  785  846  763  609  448  311  208  136   87   55   34   22   13    8    5
    0    0    0    0    0    0    0    0    0    0    0    0    0    8   65  240  497  697  752  678  542  398  277  185  121   77   49   31   19   12    7    5
    0    0    0    0    0    0    0    0    0    0    0    0    0    7   58  212  438  615  663  598  477  351  244  163  106   68   43   27   17   10    7    4
    0    0    0    0    0    0    0    0    0    0    0    0    0    6   50  185  383  537  579  523  417  307  213  142   93   59   38   24   15    9    6    4
    0    0    0    0    0    0    0    0    0    0    0    0    0    5   44  160  331  464  501  452  361  265  184  123   80   51   33   20   13    8    5    3
    0    0    0    0    0    0    0    0    0    0    0    0    0    4   37  137  283  397  428  386  308  226  157  105   69   44   28   17   11    7    4    3
    0    0    0    0    0    0    0    0    0    0    0    0    0    4   31  115  238  334  360  325  259  191  133   89   58   37   23   15    9    6    4    2
    0    0    0    0    0    0    0    0    0    0    0    0    0    3   26   95  197  277  299  269  215  158  110   73   48   31   19   12    8    5    3    2
    0    0    0    0    0    0    0    0    0    0    0    0    0    2   21   77  160  225  242  218  174  128   89   60   39   25   16   10    6    4    2    1
    0    0    0    0    0    0    0    0    0    0    0    0    0    2   17   61  127  178  192  173  138  101   70   47   31   20   12    8    5    3    2    1
    0    0    0    0    0    0    0    0    0    0    0    0    0    2   13   47   97  136  147  133  106   78   54   36   24   15   10    6    4    2    1    1
    0    0    0    0    0    0    0    0    0    0    0    0    0    1    9   35   71  100  108   98   78   57   40   27   17   11    7    4    3    2    1    1
    0    0    0    0    0    0    0    0    0    0    0    0    0    1    7   24   50   70   75   68   54   40   28   18   12    8    5    3    2    1    1    0
    0    0    0    0    0    0    0    0    0    0    0    0    0    0    4   15   32   45   48   43   35   25   18   12    8    5    3    2    1    1    0    0
    0    0    0    0    0    0    0    0    0    0    0    0    0    0    2    9   18   25   27   24   20   14   10    7    4    3    2    1    1    0    0    0
    0    0    0    0    0    0    0    0    0    0    0    0    0    0    1    4    8   11   12   11    9    6    4    3    2    1    1    0    0    0    0    0
    0    0    0    0    0    0    0    0    0    0    0    0    0    0    0    1    2    3    3    3    2    2    1    1    0    0    0    0    0    0    0    0
    0    0    0    0    0    0    0    0    0    0    0    0    0    0    0    0    0    0    0    0    0    0    0    0    0    0    0    0    0    0    0    0
    0    0    0    0    0    0    0    0    0    0    0    0    0    0    0    0    0    0    0    0    0    0    0    0    0    0    0    0    0    0    0    0
    0    0    0    0    0    0    0    0    0    0    0    0    0    0    0    0    0    0    0    0    0    0    0    0    0    0    0    0    0    0    0    0
    0    0    0    0    0    0    0    0    0    0    0    0    0    0    0    0    0    0    0    0    0    0    0    0    0    0    0    0    0    0    0    0
    0    0    0    0    0    0    0    0    0    0    0    0    0    0    0    0    0    0    0    0    0    0    0    0    0    0    0    0    0    0    0    0
    0    0    0    0    0    0    0    0    0    0    0    0    0    0    0    0    0    0    0    0    0    0    0    0    0    0    0    0    0    0    0    0
    0    0    0    0    0    0    0    0    0    0    0    0    0    0    0    0    0    0    0    0    0    0    0    0    0    0    0    0    0    0    0    0
    0    0    0    0    0    0    0    0    0    0    0    0    0    0    0    0    0    0    0    0    0    0    0    0    0    0    0    0    0    0    0    0
    0    0    0    0    0    0    0    0    0    0    0    0    0    0    0    0    0    0    0    0    0    0    0    0    0    0    0    0    0    0    0    0
    0    0    0    0    0    0    0    0    0    0    0    0    0    0    0    0    0    0    0    0    0    0    0    0    0    0    0    0    0    0    0    0
    0    0    0    0    0    0    0    0    0    0    0    0    0    0    0    0    0    0    0    0    0    0    0    0    0    0    0    0    0    0    0    0
    0    0    0    0    0    0    0    0    0    0    0    0    0    0    0    0    0    0    0    0    0    0    0    0    0    0    0    0    0    0    0    0
    0    0    0    0    0    0    0    0    0    0    0    0    0    0    0    0    0    0    0    0    0    0    0    0    0    0    0    0    0    0    0    0
    0    0    0    0    0    0    0    0    0    0    0    0    0    0    0    0    0    0    0    0    0    0    0    0    0    0    0    0    0    0    0    0
    0    0    0    0    0    0    0    0    0    0    0    0    0    0    0    0    0    0    0    0    0    0    0    0    0    0    0    0    0    0    0    0
    0    0    0    0    0    0    0    0    0    0    0    0    0    0    0    0    0    0    0    0    0    0    0    0    0    0    0    0    0    0    0    0
    0    0    0    0    0    0    0    0    0    0    0    0    0    0    0    0    0    0    0    0    0    0    0    0    0    0    0    0    0    0    0    0
    0    0    0    0    0    0    0    0    0    0    0    0    0    0    0    0    0    0    0    0    0    0    0    0    0    0    0    0    0    0    0    0
    0    0    0    0    0    0    0    0    0    0    0    0    0    0    0    0    0    0    0    0    0    0    0    0    0    0    0    0    0    0    0    0
    0    0    0    0    0    0    0    0    0    0    0    0    0    0    0    0    0    0    0    0    0    0    0    0    0    0    0    0    0    0    0    0
    0    0    0    0    0    0    0    0    0    0    0    0    0    0    0    0    0    0    0    0    0    0    0    0    0    0    0    0    0    0    0    0
    0    0    0    0    0    0    0    0    0    0    0    0    0    0    0    0    0    0    0    0    0    0    0    0    0    0    0    0    0    0    0    0
    0    0    0    0    0    0    0    0    0    0    0    0    0    0    0    0    0    0    0    0    0    0    0    0    0    0    0    0    0    0    0    0
    0    0    0    0    0    0    0    0    0    0    0    0    0    0    0    0    0    0    0    0    0    0    0    0    0    0    0    0    0    0    0    0
    0    0    0    0    0    0    0    0    0    0    0    0    0    0    0    0    0    0    0    0    0    0    0    0    0    0    0    0    0    0    0    0
    0    0    0    0    0    0    0    0    0    0    0    0    0    0    0    0    0    0    0    0    0    0    0    0    0    0    0    0    0    0    0    0
    0    0    0    0    0    0    0    0    0    0    0    0    0    0    0    0    0    0    0    0    0    0    0    0    0    0    0    0    0    0    0    0
    0    0    0    0    0    0    0    0    0    0    0    0    0    0    0    0    0    0    0    0    0    0    0    0    0    0    0    0    0    0    0    0
    0    0    0    0    0    0    0    0    0    0    0    0    0    0    0    0    0    0    0    0    0    0    0    0    0    0    0    0    0    0    0    0
    0    0    0    0    0    0    0    0    0    0    0    0    0    0    0    0    0    0    0    0    0    0    0    0    0    0    0    0    0    0    0    0
    0    0    0    0    0    0    0    0    0    0    0    0    0    0    0    0    0    0    0    0    0    0    0    0    0    0    0    0    0    0    0    0
    0    0    0    0    0    0    0    0    0    0    0    0    0    0    0    0    0    0    0    0    0    0    0    0    0    0    0    0    0    0    0    0
    0    0    0    0    0    0    0    0    0    0    0    0    0    0    0    0    0    0    0    0    0    0    0    0    0    0    0    0    0    0    0    0
    0    0    0    0    0    0    0    0    0    0    0    0    0    0    0    0    0    0    0    0    0    0    0    0    0    0    0    0    0    0    0    0
    0    0    0    0    0    0    0    0    0    0    0    0    0    0    0    0    0    0    0    0    0    0    0    0    0    0    0    0    0    0    0    0
    0    0    0    0    0    0    0    0    0    0    0    0    0    0    0    0    0    0    0    0    0    0    0    0    0    0    0    0    0    0    0    0
    0    0    0    0    0    0    0    0    0    0    0    0    0    0    0    0    0    0    0    0    0    0    0    0    0    0    0    0    0    0    0    0
    0    0    0    0    0    0    0    0    0    0    0    0    0    0    0    0    0    0    0    0    0    0    0    0    0    0    0    0    0    0    0    0
    0    0    0    0    0    0    0    0    0    0    0    0    0    0    0    0    0    0    0    0    0    0    0    0    0    0    0    0    0    0    0    0
    0    0    0    0    0    0    0    0    0    0    0    0    0    0    0    0    0    0    0    0    0    0    0    0    0    0    0    0    0    0    0    0
    0    0    0    0    0    0    0    0    0    0    0    0    0    0    0    0    0    0    0    0    0    0    0    0    0    0    0    0    0    0    0    0
    0    0    0    0    0    0    0    0    0    0    0    0    0    0    0    0    0    0    0    0    0    0    0    0    0    0    0    0    0    0    0    0
    0    0    0    0    0    0    0    0    0    0    0    0    0    0    0    0    0    0    0    0    0    0    0    0    0    0    0    0    0    0    0    0
    0    0    0    0    0    0    0    0    0    0    0    0    0    0    0    0    0    0    0    0    0    0    0    0    0    0    0    0    0    0    0    0
    0    0    0    0    0    0    0    0    0    0    0    0    0    0    0    0    0    0    0    0    0    0    0    0    0    0    0    0    0    0    0    0
    0    0    0    0    0    0    0    0    0    0    0    0    0    0    0    0    0    0    0    0    0    0    0    0    0    0    0    0    0    0    0    0
    0    0    0    0    0    0    0    0    0    0    0    0    0    0    0    0    0    0    0    0    0    0    0    0    0    0    0    0    0    0    0    0
    0    0    0    0    0    0    0    0    0    0    0    0    0    0    0    0    0    0    0    0    0    0    0    0    0    0    0    0    0    0    0    0
    0    0    0    0    0    0    0    0    0    0    0    0    0    0    0    0    0    0    0    0    0    0    0    0    0    0    0    0    0    0    0    0
    0    0    0    0    0    0    0    0    0    0    0    0    0    0    0    0    0    0    0    0    0    0    0    0    0    0    0    0    0    0    0    0
    0    0    0    0    0    0    0    0    0    0    0    0    0    0    0    0    0    0    0    0    0    0    0    0    0    0    0    0    0    0    0    0
    0    0    0    0    0    0    0    0    0    0    0    0    0    0    0    0    0    0    0    0    0    0    0    0    0    0    0    0    0    0    0    0
    0    0    0    0    0    0    0    0    0    0    0    0    0    0    0    0    0    0    0    0    0    0    0    0    0    0    0    0    0    0    0    0
    0    0    0    0    0    0    0    0    0    0    0    0    0    0    0    0    0    0    0    0    0    0    0    0    0    0    0    0    0    0    0    0
    0    0    0    0    0    0    0    0    0    0    0    0    0    0    0    0    0    0    0    0    0    0    0    0    0    0    0    0    0    0    0    0
    0    0    0    0    0    0    0    0    0    0    0    0    0    0    0    0    0    0    0    0    0    0    0    0    0    0    0    0    0    0    0    0
    0    0    0    0    0    0    0    0    0    0    0    0    0    0    0    0    0    0    0    0    0    0    0    0    0    0    0    0    0    0    0    0
    0    0    0    0    0    0    0    0    0    0    0    0    0    0    0    0    0    0    0    0    0    0    0    0    0    0    0    0    0    0    0    0
    0    0    0    0    0    0    0    0    0    0    0    0    0    0    0    0    0    0    0    0    0    0    0    0    0    0    0    0    0    0    0    0
    0    0    0    0    0    0    0    0    0    0    0    0    0    0    0    0    0    0    0    0    0    0    0    0    0    0    0    0    0    0    0    0
    0    0    0    0    0    0    0    0    0    0    0    0    0    0    0    0    0    0    0    0    0    0    0    0    0    0    0    0    0    0    0    0
    0    0    0    0    0    0    0    0    0    0    0    0    0    0    0    0    0    0    0    0    0    0    0    0    0    0    0    0    0    0    0    0
    0    0    0    0    0    0    0    0    0    0    0    0    0    0    0    0    0    0    0    0    0    0    0    0    0    0    0    0    0    0    0    0
    0    0    0    0    0    0    0    0    0    0    0    0    0    0    0    0    0    0    0    0    0    0    0    0    0    0    0    0    0    0    0    0
    0    0    0    0    0    0    0    0    0    0    0    0    0    0    0    0    0    0    0    0    0    0    0    0    0    0    0    0    0    0    0    0
    0    0    0    0    0    0    0    0    0    0    0    0    0    0    0    0    0    0    0    0    0    0    0    0    0    0    0    0    0    0    0    0
    0    0    0    0    0    0    0    0    0    0    0    0    0    0    0    0    0    0    0    0    0    0    0    0    0    0    0    0    0    0    0    0
    0    0    0    0    0    0    0    0    0    0    0    0    0    0    0    0    0    0    0    0    0    0    0    0    0    0    0    0    0    0    0    0
    0    0    0    0    0    0    0    0    0    0    0    0    0    0    0    0    0    0    0    0    0    0    0    0    0    0    0    0    0    0    0    0
    0    0    0    0    0    0    0    0    0    0    0    0    0    0    0    0    0    0    0    0    0    0    0    0    0    0    0    0    0    0    0    0
    0    0    0    0    0    0    0    0    0    0    0    0    0    0    0    0    0    0    0    0    0    0    0    0    0    0    0    0    0    0    0    0
    0    0    0    0    0    0    0    0    0    0    0    0    0    0    0    0    0    0    0    0    0    0    0    0    0    0    0    0    0    0    0    0
    0    0    0    0    0    0    0    0    0    0    0    0    0    0    0    0    0    0    0    0    0    0    0    0    0    0    0    0    0    0    0    0
    0    0    0    0    0    0    0    0    0    0    0    0    0    0    0    0    0    0    0    0    0    0    0    0    0    0    0    0    0    0    0    0
    0    0    0    0    0    0    0    0    0    0    0    0    0    0    0    0    0    0    0    0    0    0    0    0    0    0    0    0    0    0    0    0
    0    0    0    0    0    0    0    0    0    0    0    0    0    0    0    0    0    0    0    0    0    0    0    0    0    0    0    0    0    0    0    0
    0    0    0    0    0    0    0    0    0    0    0    0    0    0    0    0    0    0    0    0    0    0    0    0    0    0    0    0    0    0    0    0
    0    0    0    0    0    0    0    0    0    0    0    0    0    0    0    0    0    0    0    0    0    0    0    0    0    0    0    0    0    0    0    0
    0    0    0    0    0    0    0    0    0    0    0    0    0    0    0    0    0    0    0    0    0    0    0    0    0    0    0    0    0    0    0    0
    0    0    0    0    0    0    0    0    0    0    0    0    0    0    0    0    0    0    0    0    0    0    0    0    0    0    0    0    0    0    0    0
    0    0    0    0    0    0    0    0    0    0    0    0    0    0    0    0    0    0    0    0    0    0    0    0    0    0    0    0    0    0    0    0
    0    0    0    0    0    0    0    0    0    0    0    0    0    0    0    0    0    0    0    0    0    0    0    0    0    0    0    0    0    0    0    0
    0    0    0    0    0    0    0    0    0    0    0    0    0    0    0    0    0    0    0    0    0    0    0    0    0    0    0    0    0    0    0    0
    0    0    0    0    0    0    0    0    0    0    0    0    0    0    0    0    0    0    0    0    0    0    0    0    0    0    0    0    0    0    0    0
    0    0    0    0    0    0    0    0    0    0    0    0    0    0    0    0    0    0    0    0    0    0    0    0    0    0    0    0    0    0    0    0
    0    0    0    0    0    0    0    0    0    0    0    0    0    0    0    0    0    0    0    0    0    0    0    0    0    0    0    0    0    0    0    0
    0    0    0    0    0    0    0    0    0    0    0    0    0    0    0    0    0    0    0    0    0    0    0    0    0    0    0    0    0    0    0    0
    0    0    0    0    0    0    0    0    0    0    0    0    0    0    0    0    0    0    0    0    0    0    0    0    0    0    0    0    0    0    0    0
    0    0    0    0    0    0    0    0    0    0    0    0    0    0    0    0    0    0    0    0    0    0    0    0    0    0    0    0    0    0    0    0
    0    0    0    0    0    0    0    0    0    0    0    0    0    0    0    0    0    0    0    0    0    0    0    0    0    0    0    0    0    0    0    0
    0    0    0    0    0    0    0    0    0    0    0    0    0    0    0    0    0    0    0    0    0    0    0    0    0    0    0    0    0    0    0    0
    0    0    0    0    0    0    0    0    0    0    0    0    0    0    0    0    0    0    0    0    0    0    0    0    0    0    0    0    0    0    0    0
    0    0    0    0    0    0    0    0    0    0    0    0    0    0    0    0    0    0    0    0    0    0    0    0    0    0    0    0    0    0    0    0
    0    0    0    0    0    0    0    0    0    0    0    0    0    0    0    0    0    0    0    0    0    0    0    0    0    0    0    0    0    0    0    0
    0    0    0    0    0    0    0    0    0    0    0    0    0    0    0    0    0    0    0    0    0    0    0    0    0    0    0    0    0    0    0    0
    0    0    0    0    0    0    0    0    0    0    0    0    0    0    0    0    0    0    0    0    0    0    0    0    0    0    0    0    0    0    0    0
    0    0    0    0    0    0    0    0    0    0    0    0    0    0    0    0    0    0    0    0    0    0    0    0    0    0    0    0    0    0    0    0
    0    0    0    0    0    0    0    0    0    0    0    0    0    0    0    0    0    0    0    0    0    0    0    0    0    0    0    0    0    0    0    0
    0    0    0    0    0    0    0    0    0    0    0    0    0    0    0    0    0    0    0    0    0    0    0    0    0    0    0    0    0    0    0    0
    0    0    0    0    0    0    0    0    0    0    0    0    0    0    0    0    0    0    0    0    0    0    0    0    0    0    0    0    0    0    0    0
    0    0    0    0    0    0    0    0    0    0    0    0    0    0    0    0    0    0    0    0    0    0    0    0    0    0    0    0    0    0    0    0
    0    0    0    0    0    0    0    0    0    0    0    0    0    0    0    0    0    0    0    0    0    0    0    0    0    0    0    0    0    0    0    0
    0    0    0    0    0    0    0    0    0    0    0    0    0    0    0    0    0    0    0    0    0    0    0    0    0    0    0    0    0    0    0    0
    0    0    0    0    0    0    0    0    0    0    0    0    0    0    0    0    0    0    0    0    0    0    0    0    0    0    0    0    0    0    0    0
    0    0    0    0    0    0    0    0    0    0    0    0    0    0    0    0    0    0    0    0    0    0    0    0    0    0    0    0    0    0    0    0
    0    0    0    0    0    0    0    0    0    0    0    0    0    0    0    0    0    0    0    0    0    0    0    0    0    0    0    0    0    0    0    0
    0    0    0    0    0    0    0    0    0    0    0    0    0    0    0    0    0    0    0    0    0    0    0    0    0    0    0    0    0    0    0    0
    0    0    0    0    0    0    0    0    0    0    0    0    0    0    0    0    0    0    0    0    0    0    0    0    0    0    0    0    0    0    0    0
    0    0    0    0    0    0    0    0    0    0    0    0    0    0    0    0    0    0    0    0    0    0    0    0    0    0    0    0    0    0    0    0
    0    0    0    0    0    0    0    0    0    0    0    0    0    0    0    0    0    0    0    0    0    0    0    0    0    0    0    0    0    0    0    0
    0    0    0    0    0    0    0    0    0    0    0    0    0    0    0    0    0    0    0    0    0    0    0    0    0    0    0    0    0    0    0    0
    0    0    0    0    0    0    0    0    0    0    0    0    0    0    0    0    0    0    0    0    0    0    0    0    0    0    0    0    0    0    0    0
    0    0    0    0    0    0    0    0    0    0    0    0    0    0    0    0    0    0    0    0    0    0    0    0    0    0    0    0    0    0    0    0
    0    0    0    0    0    0    0    0    0    0    0    0    0    0    0    0    0    0    0    0    0    0    0    0    0    0    0    0    0    0    0    0
    0    0    0    0    0    0    0    0    0    0    0    0    0    0    0    0    0    0    0    0    0    0    0    0    0    0    0    0    0    0    0    0
    0    0    0    0    0    0    0    0    0    0    0    0    0    0    0    0    0    0    0    0    0    0    0    0    0    0    0    0    0    0    0    0
    0    0    0    0    0    0    0    0    0    0    0    0    0    0    0    0    0    0    0    0    0    0    0    0    0    0    0    0    0    0    0    0
    0    0    0    0    0    0    0    0    0    0    0    0    0    0    0    0    0    0    0    0    0    0    0    0    0    0    0    0    0    0    0    0
    0    0    0    0    0    0    0    0    0    0    0    0    0    0    0    0    0    0    0    0    0    0    0    0    0    0    0    0    0    0    0    0
    0    0    0    0    0    0    0    0    0    0    0    0    0    0    0    0    0    0    0    0    0    0    0    0    0    0    0    0    0    0    0    0
    0    0    0    0    0    0    0    0    0    0    0    0    0    0    0    0    0    0    0    0    0    0    0    0    0    0    0    0    0    0    0    0
    0    0    0    0    0    0    0    0    0    0    0    0    0    0    0    0    0    0    0    0    0    0    0    0    0    0    0    0    0    0    0    0
    0    0    0    0    0    0    0    0    0    0    0    0    0    0    0    0    0    0    0    0    0    0    0    0    0    0    0    0    0    0    0    0
    0    0    0    0    0    0    0    0    0    0    0    0    0    0    0    0    0    0    0    0    0    0    0    0    0    0    0    0    0    0    0    0
    0    0    0    0    0    0    0    0    0    0    0    0    0    0    0    0    0    0    0    0    0    0    0    0    0    0    0    0    0    0    0    0
    0    0    0    0    0    0    0    0    0    0    0    0    0    0    0    0    0    0    0    0    0    0    0    0    0    0    0    0    0    0    0    0
    0    0    0    0    0    0    0    0    0    0    0    0    0    0    0    0    0    0    0    0    0    0    0    0    0    0    0    0    0    0    0    0
    0    0    0    0    0    0    0    0    0    0    0    0    0    0    0    0    0    0    0    0    0    0    0    0    0    0    0    0    0    0    0    0
    0    0    0    0    0    0    0    0    0    0    0    0    0    0    0    0    0    0    0    0    0    0    0    0    0    0    0    0    0    0    0    0
    0    0    0    0    0    0    0    0    0    0    0    0    0    0    0    0    0    0    0    0    0    0    0    0    0    0    0    0    0    0    0    0
    0    0    0    0    0    0    0    0    0    0    0    0    0    0    0    0    0    0    0    0    0    0    0    0    0    0    0    0    0    0    0    0
    0    0    0    0    0    0    0    0    0    0    0    0    0    0    0    0    0    0    0    0    0    0    0    0    0    0    0    0    0    0    0    0
    0    0    0    0    0    0    0    0    0    0    0    0    0    0    0    0    0    0    0    0    0    0    0    0    0    0    0    0    0    0    0    0
    0    0    0    0    0    0    0    0    0    0    0    0    0    0    0    0    0    0    0    0    0    0    0    0    0    0    0    0    0    0    0    0
    0    0    0    0    0    0    0    0    0    0    0    0    0    0    0    0    0    0    0    0    0    0    0    0    0    0    0    0    0    0    0    0
    0    0    0    0    0    0    0    0    0    0    0    0    0    0    0    0    0    0    0    0    0    0    0    0    0    0    0    0    0    0    0    0
    0    0    0    0    0    0    0    0    0    0    0    0    0    0    0    0    0    0    0    0    0    0    0    0    0    0    0    0    0    0    0    0
    0    0    0    0    0    0    0    0    0    0    0    0    0    0    0    0    0    0    0    0    0    0    0    0    0    0    0    0    0    0    0    0
    0    0    0    0    0    0    0    0    0    0    0    0    0    0    0    0    0    0    0    0    0    0    0    0    0    0    0    0    0    0    0    0
    0    0    0    0    0    0    0    0    0    0    0    0    0    0    0    0    0    0    0    0    0    0    0    0    0    0    0    0    0    0    0    0
    0    0    0    0    0    0    0    0    0    0    0    0    0    0    0    0    0    0    0    0    0    0    0    0    0    0    0    0    0    0    0    0
    0    0    0    0    0    0    0    0    0    0    0    0    0    0    0    0    0    0    0    0    0    0    0    0    0    0    0    0    0    0    0    0
    0    0    0    0    0    0    0    0    0    0    0    0    0    0    0    0    0    0    0    0    0    0    0    0    0    0    0    0    0    0    0    0
    0    0    0    0    0    0    0    0    0    0    0    0    0    0    0    0    0    0    0    0    0    0    0    0    0    0    0    0    0    0    0    0
    0    0    0    0    0    0    0    0    0    0    0    0    0    0    0    0    0    0    0    0    0    0    0    0    0    0    0    0    0    0    0    0
    0    0    0    0    0    0    0    0    0    0    0    0    0    0    0    0    0    0    0    0    0    0    0    0    0    0    0    0    0    0    0    0
    0    0    0    0    0    0    0    0    0    0    0    0    0    0    0    0    0    0    0    0    0    0    0    0    0    0    0    0    0    0    0    0
    0    0    0    0    0    0    0    0    0    0    0    0    0    0    0    0    0    0    0    0    0    0    0    0    0    0    0    0    0    0    0    0
    0    0    0    0    0    0    0    0    0    0    0    0    0    0    0    0    0    0    0    0    0    0    0    0    0    0    0    0    0    0    0    0
    0    0    0    0    0    0    0    0    0    0    0    0    0    0    0    0    0    0    0    0    0    0    0    0    0    0    0    0    0    0    0    0
    0    0    0    0    0    0    0    0    0    0    0    0    0    0    0    0    0    0    0    0    0    0    0    0    0    0    0    0    0    0    0    0
    0    0    0    0    0    0    0    0    0    0    0    0    0    0    0    0    0    0    0    0    0    0    0    0    0    0    0    0    0    0    0    0
    0    0    0    0    0    0    0    0    0    0    0    0    0    0    0    0    0    0    0    0    0    0    0    0    0    0    0    0    0    0    0    0
    0    0    0    0    0    0    0    0    0    0    0    0    0    0    0    0    0    0    0    0    0    0    0    0    0    0    0    0    0    0    0    0
    0    0    0    0    0    0    0    0    0    0    0    0    0    0    0    0    0    0    0    0    0    0    0    0    0    0    0    0    0    0    0    0
    0    0    0    0    0    0    0    0    0    0    0    0    0    0    0    0    0    0    0    0    0    0    0    0    0    0    0    0    0    0    0    0
    0    0    0    0    0    0    0    0    0    0    0    0    0    0    0    0    0    0    0    0    0    0    0    0    0    0    0    0    0    0    0    0
    0    0    0    0    0    0    0    0    0    0    0    0    0    0    0    0    0    0    0    0    0    0    0    0    0    0    0    0    0    0    0    0
    0    0    0    0    0    0    0    0    0    0    0    0    0    0    0    0    0    0    0    0    0    0    0    0    0    0    0    0    0    0    0    0
    0    0    0    0    0    0    0    0    0    0    0    0    0    0    0    0    0    0    0    0    0    0    0    0    0    0    0    0    0    0    0    0
    0    0    0    0    0    0    0    0    0    0    0    0    0    0    0    0    0    0    0    0    0    0    0    0    0    0    0    0    0    0    0    0
    0    0    0    0    0    0    0    0    0    0    0    0    0    0    0    0    0    0    0    0    0    0    0    0    0    0    0    0    0    0    0    0
    0    0    0    0    0    0    0    0    0    0    0    0    0    0    0    0    0    0    0    0    0    0    0    0    0    0    0    0    0    0    0    0
    0    0    0    0    0    0    0    0    0    0    0    0    0    0    0    0    0    0    0    0    0    0    0    0    0    0    0    0    0    0    0    0
    0    0    0    0    0    0    0    0    0    0    0    0    0    0    0    0    0    0    0    0    0    0    0    0    0    0    0    0    0    0    0    0
    0    0    0    0    0    0    0    0    0    0    0    0    0    0    0    0    0    0    0    0    0    0    0    0    0    0    0    0    0    0    0    0
    0    0    0    0    0    0    0    0    0    0    0    0    0    0    0    0    0    0    0    0    0    0    0    0    0    0    0    0    0    0    0    0
    0    0    0    0    0    0    0    0    0    0    0    0    0    0    0    0    0    0    0    0    0    0    0    0    0    0    0    0    0    0    0    0
    0    0    0    0    0    0    0    0    0    0    0    0    0    0    0    0    0    0    0    0    0    0    0    0    0    0    0    0    0    0    0    0
    0    0    0    0    0    0    0    0    0    0    0    0    0    0    0    0    0    0    0    0    0    0    0    0    0    0    0    0    0    0    0    0
    0    0    0    0    0    0    0    0    0    0    0    0    0    0    0    0    0    0    0    0    0    0    0    0    0    0    0    0    0    0    0    0
    0    0    0    0    0    0    0    0    0    0    0    0    0    0    0    0    0    0    0    0    0    0    0    0    0    0    0    0    0    0    0    0
    0    0    0    0    0    0    0    0    0    0    0    0    0    0    0    0    0    0    0    0    0    0    0    0    0    0    0    0    0    0    0    0
    0    0    0    0    0    0    0    0    0    0    0    0    0    0    0    0    0    0    0    0    0    0    0    0    0    0    0    0    0    0    0    0
    0    0    0    0    0    0    0    0    0    0    0    0    0    0    0    0    0    0    0    0    0    0    0    0    0    0    0    0    0    0    0    0
    0    0    0    0    0    0    0    0    0    0    0    0    0    0    0    0    0    0    0    0    0    0    0    0    0    0    0    0    0    0    0    0
    0    0    0    0    0    0    0    0    0    0    0    0    0    0    0    0    0    0    0    0    0    0    0    0    0    0    0    0    0    0    0    0
    0    0    0    0    0    0    0    0    0    0    0    0    0    0    0    0    0    0    0    0    0    0    0    0    0    0    0    0    0    0    0    0
    0    0    0    0    0    0    0    0    0    0    0    0    0    0    0    0    0    0    0    0    0    0    0    0    0    0    0    0    0    0    0    0
    0    0    0    0    0    0    0    0    0    0    0    0    0    0    0    0    0    0    0    0    0    0    0    0    0    0    0    0    0    0    0    0
