$ WAVEWATCH III Grid output post-processing
$ -----------------------------------------
  19680601 000000 3600. 1
$
N
HS DP T01 WL02 ALPXT ALPYT ALPXY STMAXE STMAXD SCREST HMAXE HCMAXE HMAXD HCMAXD
$
  1 0
$  3 0
  1 3 2 2 2 1 T T T
$  1 360 2 2 2 1 T T T
$  1 360 2 2 3 1 
$
