$ WAVEWATCH III shell input file
$ ------------------------------
   F F
   F F
   F F
   F
   F
   F
   F
$
   19680606 000000
   19680607 000000
$
   1
$
   19680606 000000    10800  19680607 000000
$
 N
 HS T01 FP DIR
$
   19680606 000000      0  19680607 000000
   19680606 000000      0  19680607 000000
   19680606 000000      0  19680607 000000
   19680606 000000      0  19680607 000000
   19680606 000000      0  19680607 000000
