! -------------------------------------------------------------------- !
! WAVEWATCH III - ww3_grid.nml - Grid pre-processing                   !
! -------------------------------------------------------------------- !

! -------------------------------------------------------------------- !
! Define the spectrum parameterization via SPECTRUM_NML namelist
! -------------------------------------------------------------------- !
&SPECTRUM_NML
  SPECTRUM%XFR       =  1.1
  SPECTRUM%FREQ1     =  0.035
  SPECTRUM%NK        =  3
  SPECTRUM%NTH       =  36
/

! -------------------------------------------------------------------- !
! Define the run parameterization via RUN_NML namelist
! -------------------------------------------------------------------- !
&RUN_NML
  RUN%FLCX         =  T
  RUN%FLCY         =  T
/

! -------------------------------------------------------------------- !
! Define the timesteps parameterization via TIMESTEPS_NML namelist
! -------------------------------------------------------------------- !
&TIMESTEPS_NML
  TIMESTEPS%DTMAX        =  600.
  TIMESTEPS%DTXY         =  300.0
  TIMESTEPS%DTKTH        =  300.
  TIMESTEPS%DTMIN        =  360.
/

! -------------------------------------------------------------------- !
! Define the grid to preprocess via GRID_NML namelist
! -------------------------------------------------------------------- !
&GRID_NML
  GRID%NAME         =  '2D Propagation with obstructions (curvilinear grid)'
  GRID%NML          =  '../input/namelists_b.nml'
  GRID%TYPE         =  'CURV'
  GRID%COORD        =  'SPHE'
  GRID%CLOS         =  'NONE'
  GRID%ZLIM         =  -0.10
  GRID%DMIN         =  2.50
/

! -------------------------------------------------------------------- !
! Define the curvilinear grid type via CURV_NML namelist
! -------------------------------------------------------------------- !
&CURV_NML
  CURV%NX              =  121
  CURV%NY              =  121
  CURV%XCOORD%SF        =  0.0001
  CURV%XCOORD%OFF       =  0.00
  CURV%XCOORD%FILENAME  =  './../input/curv_2d.lon'
  CURV%YCOORD%SF        =  0.0001
  CURV%YCOORD%OFF       =  0.00
  CURV%YCOORD%FILENAME  =  './../input/curv_2d.lat'
/

! -------------------------------------------------------------------- !
! Define the depth to preprocess via DEPTH_NML namelist
! -------------------------------------------------------------------- !
&DEPTH_NML
  DEPTH%SF        =  0.001
  DEPTH%FILENAME  =  './../input/curv_2d.bot'
/

! -------------------------------------------------------------------- !
! Define the point status map via MASK_NML namelist
! -------------------------------------------------------------------- !
&MASK_NML
  MASK%FILENAME  =  './../input/curv_2d.mask'
/

! -------------------------------------------------------------------- !
! Define the obstruction map via OBST_NML namelist
! -------------------------------------------------------------------- !
&OBST_NML
  OBST%SF        =  0.01
  OBST%FILENAME  =  './../input/curv_2d.obs'
/

! -------------------------------------------------------------------- !
! WAVEWATCH III - end of namelist                                      !
! -------------------------------------------------------------------- !
