! -------------------------------------------------------------------- !
! WAVEWATCH III ww3_shel.nml - single-grid model                       !
! -------------------------------------------------------------------- !


! -------------------------------------------------------------------- !
! Define top-level model parameters via DOMAIN_NML namelist
! -------------------------------------------------------------------- !
&DOMAIN_NML
  DOMAIN%STOP    = '19680606 120000'
/

! -------------------------------------------------------------------- !
! Define each forcing via the INPUT_NML namelist
! -------------------------------------------------------------------- !
&INPUT_NML
  INPUT%FORCING%ICE_PARAM1    = 'T'
  INPUT%FORCING%ICE_PARAM2    = 'T'
  INPUT%FORCING%ICE_PARAM3    = 'T'
  INPUT%FORCING%ICE_PARAM4    = 'T'
  INPUT%FORCING%WATER_LEVELS  = 'H'
  INPUT%FORCING%ICE_CONC      = 'T'
/

! -------------------------------------------------------------------- !
! Define the output types point parameters via OUTPUT_TYPE_NML namelist
! -------------------------------------------------------------------- !
&OUTPUT_TYPE_NML
  TYPE%FIELD%LIST          = 'DPT WLV HS DIR ICE'
  TYPE%POINT%FILE          = '../input_IC3_V1_h/points.list'
/

! -------------------------------------------------------------------- !
! Define output dates via OUTPUT_DATE_NML namelist
! -------------------------------------------------------------------- !
&OUTPUT_DATE_NML
  DATE%FIELD          = '19680606 000000' '3600' '19680606 120000'
  DATE%POINT          = '19680606 000000' '900' '19680606 120000'
/

! -------------------------------------------------------------------- !
! Define homogeneous input via HOMOG_COUNT_NML and HOMOG_INPUT_NML namelist
! -------------------------------------------------------------------- !
&HOMOG_COUNT_NML
  HOMOG_COUNT%N_LEV                =  1
/

&HOMOG_INPUT_NML
  HOMOG_INPUT(1)%NAME        = 'LEV'
  HOMOG_INPUT(1)%VALUE1      = 1.1
/

! -------------------------------------------------------------------- !
! WAVEWATCH III - end of namelist                                      !
! -------------------------------------------------------------------- !
