$ WAVEWATCH III Initial conditions input file
$ -------------------------------------------
  1
   0.10 0.0001  150. 100 350.E3 40.E3 150.E3 40.E3  10.0
