$ WAVEWATCH III Initial conditions input file
$ -------------------------------------------
  1
$  fp    sip   thm  ncos xm  six   ym  siy hmax
   0.3  0.015  270. 100  0. -3.E3  0. 3.E3  1.0
$  0.3  0.0001 270. 100  0. -3.E3  0. 3.E3  1.0
