$ WAVEWATCH III Point output post-processing
$ ------------------------------------------
  19680607 000000   3600. 1
$
   4
   5
   6
   7
   8
   9
  10
  11
  12
  13
  14
  15
  16
  17
  18
  19
  20
  -1
$
   1
   1  0.  -1. 33   F
