$ WAVEWATCH III shell input file
$ ------------------------------
   F F
   T F
   F F
   F F
   F F
   F F
   F
   F
   F
$
   19680606 000000
   19680607 000000
$
   1
$
   19680606 000000    900  19680616 000000
$
  N
  DPT CUR HS 
$
   19680606 000000    900  19680616 000000
     0.    0.0    'No curr.1'
     3.E3  0.0    'No curr.2'
     6.E3  0.0    'No curr.3'
     9.E3  0.0    'No curr.4'
    12.E3  0.0    'No curr.5'
    15.E3  0.0    'U=0.2m/s'
    18.E3  0.0    'U=0.4m/s'
    21.E3  0.0    'U=0.6m/s'
    24.E3  0.0    'U=0.8m/s'
    27.E3  0.0    'U=1.0m/s'
    30.E3  0.0    'U=1.2m/s'
    33.E3  0.0    'U=1.4m/s'
    36.E3  0.0    'U=1.6m/s'
    39.E3  0.0    'U=1.8m/s'
    42.E3  0.0    'U=2.0m/s'
    45.E3  0.0    'U=2.2m/s'
    48.E3  0.0    'U=2.4m/s'
    51.E3  0.0    'U=2.6m/s'
    54.E3  0.0    'U=2.8m/s'
    57.E3  0.0    'U=3.0m/s'
     0.    0.0    'STOPSTRING'
   19680606 000000      0  19680616 000000
   19680606 000000      0  19680616 000000
   19680606 000000      0  19680616 000000
   19680606 000000      0  19680616 000000
