$ WAVEWATCH III Initial conditions input file
$ -------------------------------------------
4
$ ITYPE = 4 ---------------------------------------------------------- $
$ User-defined spectrum
$ - Scale factor., defaults to 1 if less than or equal 0.
$ - Spectrum F(f,theta) (single read statement)
-0.1
  0.62857109E-13  0.62882195E-13  0.62937929E-13  0.63068732E-13  0.63393789E-13  0.64250654E-13  0.66648930E-13  0.73776922E-13  0.96246429E-13  0.17115466E-12  0.43391411E-12  0.13960139E-11  0.50305480E-11  0.18965390E-10  0.71975245E-10  0.26600955E-09  0.92156194E-09  0.28524514E-08  0.74202564E-08  0.15010810E-07  0.21408908E-07  0.19032964E-07  0.90420382E-08  0.18949071E-08  0.13811209E-09  0.26669268E-11  0.71670893E-13  0.62835303E-13  0.62831854E-13  0.62831854E-13  0.62831854E-13  0.62831854E-13  0.62831854E-13  0.62831854E-13  0.62831854E-13  0.62831854E-13
  0.80149490E-13  0.97355358E-13  0.13557668E-12  0.22528138E-12  0.44821351E-12  0.10358555E-11  0.26806170E-11  0.75690617E-11  0.22978858E-10  0.74351622E-10  0.25455449E-09  0.91437163E-09  0.34069689E-08  0.12963613E-07  0.49318267E-07  0.18238880E-06  0.63197268E-06  0.19561946E-05  0.50888380E-05  0.10294511E-04  0.14682386E-04  0.13052942E-04  0.62010704E-05  0.12995021E-05  0.94675528E-07  0.17859754E-08  0.61247270E-11  0.65196607E-13  0.62831915E-13  0.62831854E-13  0.62831854E-13  0.62831854E-13  0.62831854E-13  0.62831854E-13  0.62831854E-13  0.62831854E-13
  0.39107864E-12  0.71720668E-12  0.14416719E-11  0.31419769E-11  0.73675389E-11  0.18505983E-10  0.49681571E-10  0.14233947E-09  0.43442411E-09  0.14081679E-08  0.48238187E-08  0.17330304E-07  0.64576177E-07  0.24571736E-06  0.93480065E-06  0.34570826E-05  0.11978708E-04  0.37078644E-04  0.96456250E-04  0.19512704E-03  0.27829691E-03  0.24741160E-03  0.11753804E-03  0.24631376E-04  0.17945235E-05  0.33851098E-07  0.11496287E-09  0.10765448E-12  0.62833012E-13  0.62831854E-13  0.62831854E-13  0.62831854E-13  0.62831854E-13  0.62831854E-13  0.62831854E-13  0.62831854E-13
  0.21142706E-11  0.41524683E-11  0.86801477E-11  0.19306518E-10  0.45714946E-10  0.11532673E-09  0.31016428E-09  0.88924701E-09  0.27146838E-08  0.88002761E-08  0.30147017E-07  0.10830861E-06  0.40358043E-06  0.15356557E-05  0.58422092E-05  0.21605676E-04  0.74863157E-04  0.23172982E-03  0.60282112E-03  0.12194825E-02  0.17392680E-02  0.15462446E-02  0.73457573E-03  0.15393834E-03  0.11215207E-04  0.21155837E-06  0.71815187E-09  0.34295914E-12  0.62839091E-13  0.62831854E-13  0.62831854E-13  0.62831854E-13  0.62831854E-13  0.62831854E-13  0.62831854E-13  0.62831854E-13
  0.72642985E-11  0.14419282E-10  0.30313460E-10  0.67616766E-10  0.16032216E-09  0.40469056E-09  0.10886575E-08  0.31214962E-08  0.95295949E-08  0.30892743E-07  0.10582934E-06  0.38021142E-06  0.14167474E-05  0.53908370E-05  0.20508764E-04  0.75845572E-04  0.26280311E-03  0.81347517E-03  0.21161714E-02  0.42809285E-02  0.61056074E-02  0.54280097E-02  0.25786888E-02  0.54039230E-03  0.39370385E-04  0.74266416E-06  0.25208760E-08  0.10462037E-11  0.62857258E-13  0.62831854E-13  0.62831854E-13  0.62831854E-13  0.62831854E-13  0.62831854E-13  0.62831854E-13  0.62831854E-13
  0.17468799E-10  0.34762419E-10  0.73178685E-10  0.16334092E-09  0.38741013E-09  0.97804942E-09  0.26311995E-08  0.75445774E-08  0.23032971E-07  0.74667760E-07  0.25578976E-06  0.91897215E-06  0.34242828E-05  0.13029670E-04  0.49569746E-04  0.18331899E-03  0.63519593E-03  0.19661719E-02  0.51147928E-02  0.10347017E-01  0.14757271E-01  0.13119516E-01  0.62326989E-02  0.13061300E-02  0.95158342E-04  0.17950214E-05  0.60928760E-08  0.24396446E-11  0.62893253E-13  0.62831854E-13  0.62831854E-13  0.62831854E-13  0.62831854E-13  0.62831854E-13  0.62831854E-13  0.62831854E-13
  0.31990362E-10  0.63711814E-10  0.13417828E-09  0.29956163E-09  0.71056871E-09  0.17939702E-08  0.48263216E-08  0.13838865E-07  0.42249020E-07  0.13696203E-06  0.46919166E-06  0.16856582E-05  0.62811159E-05  0.23900149E-04  0.90925125E-04  0.33625957E-03  0.11651315E-02  0.36065232E-02  0.93819955E-02  0.18979395E-01  0.27069068E-01  0.24064953E-01  0.11432556E-01  0.23958166E-02  0.17454768E-03  0.32925841E-05  0.11176030E-07  0.44225877E-11  0.62944482E-13  0.62831854E-13  0.62831854E-13  0.62831854E-13  0.62831854E-13  0.62831854E-13  0.62831854E-13  0.62831854E-13
  0.46855044E-10  0.93345248E-10  0.19661915E-09  0.43900097E-09  0.10413631E-08  0.26291700E-08  0.70733104E-08  0.20281876E-07  0.61919103E-07  0.20072819E-06  0.68763586E-06  0.24704595E-05  0.92054506E-05  0.35027479E-04  0.13325765E-03  0.49281388E-03  0.17075882E-02  0.52856323E-02  0.13750026E-01  0.27815741E-01  0.39671764E-01  0.35269011E-01  0.16755277E-01  0.35112507E-02  0.25581283E-03  0.48255311E-05  0.16379287E-07  0.64523846E-11  0.62996923E-13  0.62831854E-13  0.62831854E-13  0.62831854E-13  0.62831854E-13  0.62831854E-13  0.62831854E-13  0.62831854E-13
  0.56371650E-10  0.11231703E-09  0.23659483E-09  0.52827226E-09  0.12531428E-08  0.31638780E-08  0.85118685E-08  0.24406793E-07  0.74512208E-07  0.24155230E-06  0.82748733E-06  0.29729019E-05  0.11077656E-04  0.42151372E-04  0.16035960E-03  0.59304235E-03  0.20548778E-02  0.63606254E-02  0.16546506E-01  0.33472911E-01  0.47740214E-01  0.42442024E-01  0.20162966E-01  0.42253691E-02  0.30784009E-03  0.58069481E-05  0.19710496E-07  0.77518920E-11  0.63030493E-13  0.62831854E-13  0.62831854E-13  0.62831854E-13  0.62831854E-13  0.62831854E-13  0.62831854E-13  0.62831854E-13
  0.56371650E-10  0.11231703E-09  0.23659483E-09  0.52827226E-09  0.12531428E-08  0.31638780E-08  0.85118685E-08  0.24406793E-07  0.74512208E-07  0.24155230E-06  0.82748733E-06  0.29729019E-05  0.11077656E-04  0.42151372E-04  0.16035960E-03  0.59304235E-03  0.20548778E-02  0.63606254E-02  0.16546506E-01  0.33472911E-01  0.47740214E-01  0.42442024E-01  0.20162966E-01  0.42253691E-02  0.30784009E-03  0.58069481E-05  0.19710496E-07  0.77518920E-11  0.63030493E-13  0.62831854E-13  0.62831854E-13  0.62831854E-13  0.62831854E-13  0.62831854E-13  0.62831854E-13  0.62831854E-13
  0.46855044E-10  0.93345248E-10  0.19661915E-09  0.43900097E-09  0.10413631E-08  0.26291700E-08  0.70733104E-08  0.20281876E-07  0.61919103E-07  0.20072819E-06  0.68763586E-06  0.24704595E-05  0.92054506E-05  0.35027479E-04  0.13325765E-03  0.49281388E-03  0.17075882E-02  0.52856323E-02  0.13750027E-01  0.27815765E-01  0.39671943E-01  0.35269625E-01  0.16756676E-01  0.35162074E-02  0.26776665E-03  0.84030817E-05  0.13833181E-05  0.93921506E-06  0.65555253E-06  0.44116115E-06  0.28940607E-06  0.18657359E-06  0.11885678E-06  0.75104715E-07  0.47195378E-07  0.29545046E-07
  0.31990362E-10  0.63711814E-10  0.13417828E-09  0.29956163E-09  0.71056871E-09  0.17939702E-08  0.48263216E-08  0.13838865E-07  0.42249020E-07  0.13696203E-06  0.46919166E-06  0.16856582E-05  0.62811159E-05  0.23900149E-04  0.90925125E-04  0.33625957E-03  0.11651315E-02  0.36065236E-02  0.93820551E-02  0.18980797E-01  0.27079556E-01  0.24100816E-01  0.11514314E-01  0.26852130E-02  0.87245053E-03  0.21216163E-03  0.79817495E-04  0.54834050E-04  0.38273280E-04  0.25756419E-04  0.16896463E-04  0.10892772E-04  0.69392440E-05  0.43848568E-05  0.27554192E-05  0.17249355E-05
  0.17468799E-10  0.34762419E-10  0.73178685E-10  0.16334092E-09  0.38741013E-09  0.97804942E-09  0.26311995E-08  0.75445774E-08  0.23032971E-07  0.74667760E-07  0.25578976E-06  0.91897215E-06  0.34242828E-05  0.13029670E-04  0.49569746E-04  0.18331899E-03  0.63519593E-03  0.19661766E-02  0.51153703E-02  0.10360715E-01  0.14859664E-01  0.13469597E-01  0.70307530E-02  0.41310270E-02  0.69076279E-02  0.20406377E-02  0.77902322E-03  0.53525402E-03  0.37359868E-03  0.25141728E-03  0.16493221E-03  0.10632810E-03  0.67736357E-04  0.42802098E-04  0.26896596E-04  0.16837690E-04
  0.72643024E-11  0.14419291E-10  0.30313474E-10  0.67616808E-10  0.16032224E-09  0.40469075E-09  0.10886583E-08  0.31214979E-08  0.95296002E-08  0.30892760E-07  0.10582940E-06  0.38021165E-06  0.14167482E-05  0.53908402E-05  0.20508776E-04  0.75845615E-04  0.26280331E-03  0.81349595E-03  0.21187803E-02  0.43427674E-02  0.65678330E-02  0.70083681E-02  0.61812992E-02  0.13292668E-01  0.30792519E-01  0.92045739E-02  0.35166752E-02  0.24162671E-02  0.16865156E-02  0.11349590E-02  0.74454420E-03  0.47999097E-03  0.30577841E-03  0.19321912E-03  0.12141779E-03  0.76009434E-04
  0.21142684E-11  0.41524635E-11  0.86801382E-11  0.19306497E-10  0.45714894E-10  0.11532660E-09  0.31016395E-09  0.88924607E-09  0.27146807E-08  0.88002654E-08  0.30146985E-07  0.10830849E-06  0.40357995E-06  0.15356538E-05  0.58422029E-05  0.21605652E-04  0.74863106E-04  0.23178768E-03  0.61029103E-03  0.13966399E-02  0.30635148E-02  0.60739042E-02  0.11055920E-01  0.36688738E-01  0.88117875E-01  0.26368853E-01  0.10075141E-01  0.69225174E-02  0.48318054E-02  0.32516161E-02  0.21330921E-02  0.13751567E-02  0.87604404E-03  0.55356568E-03  0.34785757E-03  0.21776430E-03
  0.39107820E-12  0.71720592E-12  0.14416701E-11  0.31419732E-11  0.73675302E-11  0.18505962E-10  0.49681512E-10  0.14233931E-09  0.43442358E-09  0.14081663E-08  0.48238125E-08  0.17330283E-07  0.64576099E-07  0.24571705E-06  0.93479957E-06  0.34570785E-05  0.11978774E-04  0.37199883E-04  0.11205219E-03  0.56497415E-03  0.30428788E-02  0.96996306E-02  0.21665005E-01  0.76296888E-01  0.18393856      0.55048812E-01  0.21033473E-01  0.14451867E-01  0.10087170E-01  0.67882705E-02  0.44531724E-02  0.28708603E-02  0.18288826E-02  0.11556575E-02  0.72620850E-03  0.45461790E-03
  0.80149449E-13  0.97355263E-13  0.13557649E-12  0.22528093E-12  0.44821248E-12  0.10358529E-11  0.26806099E-11  0.75690417E-11  0.22978798E-10  0.74351428E-10  0.25455379E-09  0.91436919E-09  0.34069598E-08  0.12963579E-07  0.49318132E-07  0.18238832E-06  0.63210052E-06  0.21541346E-05  0.30542244E-04  0.61390019E-03  0.45265923E-02  0.15439458E-01  0.35172541E-01  0.12448073      0.30019239      0.89841828E-01  0.34327477E-01  0.23586031E-01  0.16462671E-01  0.11078733E-01  0.72677573E-02  0.46853600E-02  0.29848106E-02  0.18860797E-02  0.11852018E-02  0.74195483E-03
  0.62857109E-13  0.62882195E-13  0.62937929E-13  0.63068732E-13  0.63393789E-13  0.64250654E-13  0.66648930E-13  0.73776922E-13  0.96246429E-13  0.17115466E-12  0.43391411E-12  0.13960139E-11  0.50305480E-11  0.18965390E-10  0.71975245E-10  0.26600955E-09  0.10931340E-08  0.26511657E-06  0.33731492E-04  0.79975207E-03  0.59779994E-02  0.20438965E-01  0.46593040E-01  0.16492686      0.39773458      0.11903439      0.45481596E-01  0.31249907E-01  0.21811930E-01  0.14678575E-01  0.96292896E-02  0.62077870E-02  0.39546727E-02  0.24989285E-02  0.15703125E-02  0.98304031E-03
  0.62831854E-13  0.62831854E-13  0.62831854E-13  0.62831854E-13  0.62831854E-13  0.62831854E-13  0.62831854E-13  0.62831854E-13  0.62831854E-13  0.62831854E-13  0.62831854E-13  0.62831854E-13  0.62831854E-13  0.62831854E-13  0.62831854E-13  0.62831854E-13  0.18814694E-09  0.28749500E-06  0.36968457E-04  0.87667489E-03  0.65530823E-02  0.22405257E-01  0.51075470E-01  0.18079348      0.43599823      0.13048597      0.49857102E-01  0.34256268E-01  0.23910325E-01  0.16090712E-01  0.10555666E-01  0.68050008E-02  0.43351282E-02  0.27393354E-02  0.17213828E-02  0.10776126E-02
  0.62831854E-13  0.62831854E-13  0.62831854E-13  0.62831854E-13  0.62831854E-13  0.62831854E-13  0.62831854E-13  0.62831854E-13  0.62831854E-13  0.62831854E-13  0.62831854E-13  0.62831854E-13  0.62831854E-13  0.62831854E-13  0.62831854E-13  0.62831854E-13  0.17163498E-09  0.26226417E-06  0.33724071E-04  0.79973711E-03  0.59779780E-02  0.20438947E-01  0.46593033E-01  0.16492686      0.39773458      0.11903439      0.45481596E-01  0.31249907E-01  0.21811930E-01  0.14678575E-01  0.96292896E-02  0.62077870E-02  0.39546727E-02  0.24989285E-02  0.15703125E-02  0.98304031E-03
  0.62831854E-13  0.62831854E-13  0.62831854E-13  0.62831854E-13  0.62831854E-13  0.62831854E-13  0.62831854E-13  0.62831854E-13  0.62831854E-13  0.62831854E-13  0.62831854E-13  0.62831854E-13  0.62831854E-13  0.62831854E-13  0.62831854E-13  0.62831854E-13  0.12954239E-09  0.19794524E-06  0.25453415E-04  0.60360570E-03  0.45119096E-02  0.15426401E-01  0.35166331E-01  0.12447940      0.30019224      0.89841820E-01  0.34327473E-01  0.23586027E-01  0.16462669E-01  0.11078731E-01  0.72677569E-02  0.46853595E-02  0.29848102E-02  0.18860792E-02  0.11852015E-02  0.74195472E-03
  0.62831854E-13  0.62831854E-13  0.62831854E-13  0.62831854E-13  0.62831854E-13  0.62831854E-13  0.62831854E-13  0.62831854E-13  0.62831854E-13  0.62831854E-13  0.62831854E-13  0.62831854E-13  0.62831854E-13  0.62831854E-13  0.62831854E-13  0.62831854E-13  0.79374445E-10  0.12128689E-06  0.15596059E-04  0.36984700E-03  0.27645803E-02  0.94522117E-02  0.21547450E-01  0.76272205E-01  0.18393664      0.55048738E-01  0.21033455E-01  0.14451855E-01  0.10087163E-01  0.67882654E-02  0.44531687E-02  0.28708582E-02  0.18288812E-02  0.11556565E-02  0.72620803E-03  0.45461752E-03
  0.62831854E-13  0.62831854E-13  0.62831854E-13  0.62831854E-13  0.62831854E-13  0.62831854E-13  0.62831854E-13  0.62831854E-13  0.62831854E-13  0.62831854E-13  0.62831854E-13  0.62831854E-13  0.62831854E-13  0.62831854E-13  0.62831854E-13  0.62831854E-13  0.38020753E-10  0.58097019E-07  0.74705899E-05  0.17715857E-03  0.13242477E-02  0.45276568E-02  0.10321336E-01  0.36534764E-01  0.88106565E-01  0.26368616E-01  0.10075130E-01  0.69225109E-02  0.48318012E-02  0.32516131E-02  0.21330903E-02  0.13751553E-02  0.87604317E-03  0.55356522E-03  0.34785728E-03  0.21776407E-03
  0.62831854E-13  0.62831854E-13  0.62831854E-13  0.62831854E-13  0.62831854E-13  0.62831854E-13  0.62831854E-13  0.62831854E-13  0.62831854E-13  0.62831854E-13  0.62831854E-13  0.62831854E-13  0.62831854E-13  0.62831854E-13  0.62831854E-13  0.62831854E-13  0.13270950E-10  0.20278469E-07  0.26075713E-05  0.61836290E-04  0.46222191E-03  0.15803553E-02  0.36026093E-02  0.12752275E-01  0.30753149E-01  0.92038317E-02  0.35166726E-02  0.24162671E-02  0.16865156E-02  0.11349590E-02  0.74454420E-03  0.47999097E-03  0.30577841E-03  0.19321912E-03  0.12141779E-03  0.76009434E-04
  0.62831854E-13  0.62831854E-13  0.62831854E-13  0.62831854E-13  0.62831854E-13  0.62831854E-13  0.62831854E-13  0.62831854E-13  0.62831854E-13  0.62831854E-13  0.62831854E-13  0.62831854E-13  0.62831854E-13  0.62831854E-13  0.62831854E-13  0.62831854E-13  0.29397951E-11  0.44921076E-08  0.57763191E-06  0.13698040E-04  0.10239188E-03  0.35008200E-03  0.79805386E-03  0.28248969E-02  0.68124696E-02  0.20388428E-02  0.77901705E-03  0.53525402E-03  0.37359868E-03  0.25141728E-03  0.16493221E-03  0.10632810E-03  0.67736357E-04  0.42802098E-04  0.26896596E-04  0.16837690E-04
  0.62831854E-13  0.62831854E-13  0.62831854E-13  0.62831854E-13  0.62831854E-13  0.62831854E-13  0.62831854E-13  0.62831854E-13  0.62831854E-13  0.62831854E-13  0.62831854E-13  0.62831854E-13  0.62831854E-13  0.62831854E-13  0.62831854E-13  0.62831854E-13  0.30116700E-12  0.46019352E-09  0.59175445E-07  0.14032943E-05  0.10489526E-04  0.35864112E-04  0.81756545E-04  0.28939630E-03  0.69790281E-03  0.20886902E-03  0.79806319E-04  0.54834047E-04  0.38273280E-04  0.25756419E-04  0.16896463E-04  0.10892772E-04  0.69392440E-05  0.43848568E-05  0.27554192E-05  0.17249355E-05
  0.62831854E-13  0.62831854E-13  0.62831854E-13  0.62831854E-13  0.62831854E-13  0.62831854E-13  0.62831854E-13  0.62831854E-13  0.62831854E-13  0.62831854E-13  0.62831854E-13  0.62831854E-13  0.62831854E-13  0.62831854E-13  0.62831854E-13  0.62831854E-13  0.62831854E-13  0.78822877E-11  0.10135690E-08  0.24035909E-07  0.17966673E-06  0.61428779E-06  0.14003426E-05  0.49568384E-05  0.11953820E-04  0.35775508E-05  0.13669388E-05  0.93920863E-06  0.65555253E-06  0.44116115E-06  0.28940607E-06  0.18657359E-06  0.11885678E-06  0.75104715E-07  0.47195378E-07  0.29545046E-07
  0.62831854E-13  0.62831854E-13  0.62831854E-13  0.62831854E-13  0.62831854E-13  0.62831854E-13  0.62831854E-13  0.62831854E-13  0.62831854E-13  0.62831854E-13  0.62831854E-13  0.62831854E-13  0.62831854E-13  0.62831854E-13  0.62831854E-13  0.62831854E-13  0.62831854E-13  0.62831854E-13  0.62831854E-13  0.62831854E-13  0.62831854E-13  0.62831854E-13  0.62831854E-13  0.62831854E-13  0.62831854E-13  0.62831854E-13  0.62831854E-13  0.62831854E-13  0.62831854E-13  0.62831854E-13  0.62831854E-13  0.62831854E-13  0.62831854E-13  0.62831854E-13  0.62831854E-13  0.62831854E-13
  0.62831854E-13  0.62831854E-13  0.62831854E-13  0.62831854E-13  0.62831854E-13  0.62831854E-13  0.62831854E-13  0.62831854E-13  0.62831854E-13  0.62831854E-13  0.62831854E-13  0.62831854E-13  0.62831854E-13  0.62831854E-13  0.62831854E-13  0.62831854E-13  0.62831854E-13  0.62831854E-13  0.62831854E-13  0.62831854E-13  0.62831854E-13  0.62831854E-13  0.62831854E-13  0.62831854E-13  0.62831854E-13  0.62831854E-13  0.62831854E-13  0.62831854E-13  0.62831854E-13  0.62831854E-13  0.62831854E-13  0.62831854E-13  0.62831854E-13  0.62831854E-13  0.62831854E-13  0.62831854E-13
  0.62831854E-13  0.62831854E-13  0.62831854E-13  0.62831854E-13  0.62831854E-13  0.62831854E-13  0.62831854E-13  0.62831854E-13  0.62831854E-13  0.62831854E-13  0.62831854E-13  0.62831854E-13  0.62831854E-13  0.62831854E-13  0.62831854E-13  0.62831854E-13  0.62831854E-13  0.62831854E-13  0.62831854E-13  0.62831854E-13  0.62831854E-13  0.62831854E-13  0.62831854E-13  0.62831854E-13  0.62831854E-13  0.62831854E-13  0.62831854E-13  0.62831854E-13  0.62831854E-13  0.62831854E-13  0.62831854E-13  0.62831854E-13  0.62831854E-13  0.62831854E-13  0.62831854E-13  0.62831854E-13
  0.62831854E-13  0.62831854E-13  0.62831854E-13  0.62831854E-13  0.62831854E-13  0.62831854E-13  0.62831854E-13  0.62831854E-13  0.62831854E-13  0.62831854E-13  0.62831854E-13  0.62831854E-13  0.62831854E-13  0.62831854E-13  0.62831854E-13  0.62831854E-13  0.62831854E-13  0.62831854E-13  0.62831854E-13  0.62831854E-13  0.62831854E-13  0.62831854E-13  0.62831854E-13  0.62831854E-13  0.62831854E-13  0.62831854E-13  0.62831854E-13  0.62831854E-13  0.62831854E-13  0.62831854E-13  0.62831854E-13  0.62831854E-13  0.62831854E-13  0.62831854E-13  0.62831854E-13  0.62831854E-13
  0.62831854E-13  0.62831854E-13  0.62831854E-13  0.62831854E-13  0.62831854E-13  0.62831854E-13  0.62831854E-13  0.62831854E-13  0.62831854E-13  0.62831854E-13  0.62831854E-13  0.62831854E-13  0.62831854E-13  0.62831854E-13  0.62831854E-13  0.62831854E-13  0.62831854E-13  0.62831854E-13  0.62831854E-13  0.62831854E-13  0.62831854E-13  0.62831854E-13  0.62831854E-13  0.62831854E-13  0.62831854E-13  0.62831854E-13  0.62831854E-13  0.62831854E-13  0.62831854E-13  0.62831854E-13  0.62831854E-13  0.62831854E-13  0.62831854E-13  0.62831854E-13  0.62831854E-13  0.62831854E-13
  0.62831854E-13  0.62831854E-13  0.62831854E-13  0.62831854E-13  0.62831854E-13  0.62831854E-13  0.62831854E-13  0.62831854E-13  0.62831854E-13  0.62831854E-13  0.62831854E-13  0.62831854E-13  0.62831854E-13  0.62831854E-13  0.62831854E-13  0.62831854E-13  0.62831854E-13  0.62831854E-13  0.62831854E-13  0.62831854E-13  0.62831854E-13  0.62831854E-13  0.62831854E-13  0.62831854E-13  0.62831854E-13  0.62831854E-13  0.62831854E-13  0.62831854E-13  0.62831854E-13  0.62831854E-13  0.62831854E-13  0.62831854E-13  0.62831854E-13  0.62831854E-13  0.62831854E-13  0.62831854E-13
  0.62831854E-13  0.62831854E-13  0.62831854E-13  0.62831854E-13  0.62831854E-13  0.62831854E-13  0.62831854E-13  0.62831854E-13  0.62831854E-13  0.62831854E-13  0.62831854E-13  0.62831854E-13  0.62831854E-13  0.62831854E-13  0.62831854E-13  0.62831854E-13  0.62831854E-13  0.62831854E-13  0.62831854E-13  0.62831854E-13  0.62831854E-13  0.62831854E-13  0.62831854E-13  0.62831854E-13  0.62831854E-13  0.62831854E-13  0.62831854E-13  0.62831854E-13  0.62831854E-13  0.62831854E-13  0.62831854E-13  0.62831854E-13  0.62831854E-13  0.62831854E-13  0.62831854E-13  0.62831854E-13
  0.62831854E-13  0.62831854E-13  0.62831854E-13  0.62831854E-13  0.62831854E-13  0.62831854E-13  0.62831854E-13  0.62831854E-13  0.62831854E-13  0.62831854E-13  0.62831854E-13  0.62831854E-13  0.62831854E-13  0.62831854E-13  0.62831854E-13  0.62831854E-13  0.62831854E-13  0.62831854E-13  0.62831854E-13  0.62831854E-13  0.62831854E-13  0.62831854E-13  0.62831854E-13  0.62831854E-13  0.62831854E-13  0.62831854E-13  0.62831854E-13  0.62831854E-13  0.62831854E-13  0.62831854E-13  0.62831854E-13  0.62831854E-13  0.62831854E-13  0.62831854E-13  0.62831854E-13  0.62831854E-13
  0.62831854E-13  0.62831854E-13  0.62831854E-13  0.62831854E-13  0.62831854E-13  0.62831854E-13  0.62831854E-13  0.62831854E-13  0.62831854E-13  0.62831854E-13  0.62831854E-13  0.62831854E-13  0.62831854E-13  0.62831854E-13  0.62831854E-13  0.62831854E-13  0.62831854E-13  0.62831854E-13  0.62831854E-13  0.62831854E-13  0.62831854E-13  0.62831854E-13  0.62831854E-13  0.62831854E-13  0.62831854E-13  0.62831854E-13  0.62831854E-13  0.62831854E-13  0.62831854E-13  0.62831854E-13  0.62831854E-13  0.62831854E-13  0.62831854E-13  0.62831854E-13  0.62831854E-13  0.62831854E-13
