$
$ WAVEWATCH III Grid preprocessor input file
$ -------------------------------------------
  'Michigan Lake 0.05 x 0.035 degr.'
$
SPECTRA
$
  F T T T F T
$
  240.  240.  120.  80.
$
SOURCES
END OF NAMELISTS
$
  66     133
    0.05  0.035   1.00
  272.00  41.575   1.00
  -0.1  1.00  16  -1.  1 1 '(...)' 'NAME' 'grl_mich.bot'
              10  3     1  '(...)' 'PART' 'grl_mich.map'
$
      0   0   F
$
      0   0   F
$
      0   0
$
      0.      0.    0.    0.       0
$
$ End of input file
