$ -------------------------------------------------------------------- $
$ WAVEWATCH III Field preprocessor input file                          $
$ -------------------------------------------------------------------- $
$ Major types of field and time flag
$   Field types  :  IC1   Ice thickness.
$                   IC5   Ice floe mean diameter.
$                   ICE   Ice concentrations.
$                   ISI   Icebergs and sea ice.
$                   LEV   Water levels.
$                   WND   Winds.
$                   WNS   Winds (including air-sea temp. dif.)
$                   CUR   Currents.
$                   DAT   Data for assimilation.
$
$   Format types :  AI    Transfer field 'as is'.
$                   LL    Field defined on rectilinear grid (in same
$                         coordinate system as model grid)
$                   F1    Field defined on curvilinear grid (in same
$                         coordinate system as model grid), coordinates
$                         of each grid point given in separate file.
$                   F2    Like F1, composite of 2 fields.
$
$        - Format type not used for field type 'DAT'.
$
$   Time flag    : If true, time is included in file.
$   Header flag  : If true, header is added to file.
$                  (necessary for reading, FALSE is used only for
$                   incremental generation of a data file.)
$
   'IC1' 'LL' T T
$
$ min(x) max(x) nx ; min(y) max(y) ny
$ We use a 2x2 grid, since the winds will be uniform
   0.0 1000.0e+3 2  0.0 1000.0e+3 2 
$
$ Define data files -------------------------------------------------- $
$ The first input line identifies the file format with FROM, IDLA and
$ IDFM, the second (third) lines give the file unit number and name.
$
$  'UNIT' 3 1 '(..T..)' '(..F..)' 
  'NAME' 1 2 '(I10,1x,I10)' '(1000(F5.2))' 
  402 '../input/ice1.ascii'
$
$ -------------------------------------------------------------------- $
$ End of input file                                                    $
$ -------------------------------------------------------------------- $
