! -------------------------------------------------------------------- !
! WAVEWATCH III - ww3_grid.nml - Grid pre-processing                   !
! -------------------------------------------------------------------- !

! -------------------------------------------------------------------- !
! Define the spectrum parameterization via SPECTRUM_NML namelist
! -------------------------------------------------------------------- !
&SPECTRUM_NML
  SPECTRUM%XFR       =  1.1
  SPECTRUM%FREQ1     =  0.0418
  SPECTRUM%NK        =  31
  SPECTRUM%NTH       =  36
  SPECTRUM%THOFF     =  5.0
/

! -------------------------------------------------------------------- !
! Define the run parameterization via RUN_NML namelist
! -------------------------------------------------------------------- !
&RUN_NML
  RUN%FLCX         =  T
  RUN%FLCY         =  T
  RUN%FLCTH        =  T
  RUN%FLSOU        =  T
/

! -------------------------------------------------------------------- !
! Define the timesteps parameterization via TIMESTEPS_NML namelist
! -------------------------------------------------------------------- !
&TIMESTEPS_NML
  TIMESTEPS%DTMAX        =  800.
  TIMESTEPS%DTXY         =  400.
  TIMESTEPS%DTKTH        =  400.
  TIMESTEPS%DTMIN        =  40.
/

! -------------------------------------------------------------------- !
! Define the grid to preprocess via GRID_NML namelist
! -------------------------------------------------------------------- !
&GRID_NML
  GRID%NAME         =  'inner grid'
  GRID%NML          =  '../input/namelists_inner.nml'
  GRID%TYPE         =  'RECT'
  GRID%COORD        =  'CART'
  GRID%CLOS         =  'NONE'
  GRID%ZLIM         =  -5.
  GRID%DMIN         =  5.75
/

! -------------------------------------------------------------------- !
! Define the rectilinear grid type via RECT_NML namelist
! -------------------------------------------------------------------- !
&RECT_NML
  RECT%NX           =  20
  RECT%NY           =  20
  RECT%SX           =  10.E3
  RECT%SY           =  10.E3
  RECT%X0           =  300.E3
  RECT%Y0           =  300.E3
/

! -------------------------------------------------------------------- !
! Define the depth to preprocess via DEPTH_NML namelist
! -------------------------------------------------------------------- !
&DEPTH_NML
  DEPTH%SF        =  -2500.
  DEPTH%FILENAME  =  '../input/inner.depth'
  DEPTH%IDLA      =  4
/

! -------------------------------------------------------------------- !
! Define the obstruction map via OBST_NML namelist
! -------------------------------------------------------------------- !
&OBST_NML
  OBST%SF        =  1
  OBST%FILENAME  =  '../input/inner.obst'
  OBST%IDLA      =  4
/

! -------------------------------------------------------------------- !
! Define the input boundary points via INBND_COUNT_NML and
!                                      INBND_POINT_NML namelist
! -------------------------------------------------------------------- !
&INBND_COUNT_NML
  INBND_COUNT%N_POINT    =  5
/

&INBND_POINT_NML
  INBND_POINT(1)         =  1 20 F
  INBND_POINT(2)         =  20 20 T
  INBND_POINT(3)         =  20 1 T
  INBND_POINT(4)         =  1 1 T
  INBND_POINT(5)         =  1 20 T
/

! -------------------------------------------------------------------- !
! WAVEWATCH III - end of namelist                                      !
! -------------------------------------------------------------------- !
