$ WAVEWATCH III Grid output post-processing
$ -----------------------------------------
  19680601 000000 259200. 3
$
N
HS
$
  1 0
$
  1 3 1 2 123 1 T F F
