$ WAVEWATCH III shell input file
$ ------------------------------
   F T
   F T
   F T
   F
   F
   F
   F
$
   19680601 000000
   19680607 000000
$
   1
$
   19680601 000000  43200  19680607 000000
$
N
HS
$
   19680601 000000      0  19680607 000000
   19680601 000000      0  19680625 000000
   19680601 000000      0  19680625 000000
   19680601 000000      0  19680625 000000
   19680601 000000      0  19680625 000000
