! -------------------------------------------------------------------- !
! WAVEWATCH III - ww3_grid.nml - Grid pre-processing                   !
! -------------------------------------------------------------------- !

! -------------------------------------------------------------------- !
! Define the spectrum parameterization via SPECTRUM_NML namelist
! -------------------------------------------------------------------- !
&SPECTRUM_NML
  SPECTRUM%XFR       =  F
  SPECTRUM%FREQ1     =  T
  SPECTRUM%NK        =  T
  SPECTRUM%NTH       =  T
  SPECTRUM%THOFF     =  F
/

! -------------------------------------------------------------------- !
! Define the run parameterization via RUN_NML namelist
! -------------------------------------------------------------------- !
&RUN_NML
  RUN%FLDRY        =  600.
  RUN%FLCX         =  120.
  RUN%FLCY         =  120.
  RUN%FLCTH        =  120.
  RUN%FLCK         =  
  RUN%FLSOU        =  
/

! -------------------------------------------------------------------- !
! Define the timesteps parameterization via TIMESTEPS_NML namelist
! -------------------------------------------------------------------- !
&TIMESTEPS_NML
  TIMESTEPS%DTMAX        =  &PSMC
  TIMESTEPS%DTXY         =  DTIMS=3600.,NBISMC=67,LvSMC=4,AVERG=.TRUE.,SEAWND=.TRUE./
  TIMESTEPS%DTKTH        =  
  TIMESTEPS%DTMIN        =  
/

! -------------------------------------------------------------------- !
! Define the grid to preprocess via GRID_NML namelist
! -------------------------------------------------------------------- !
&GRID_NML
  GRID%NAME         =  '1.1 0.04118 25 24 0.'
  GRID%NML          =  '../input/namelists_Super.nml'
  GRID%TYPE         =  'SMCG'
  GRID%COORD        =  'SPHE'
  GRID%CLOS         =  'NONE'
  GRID%ZLIM         =  384
  GRID%DMIN         =  256
/

! -------------------------------------------------------------------- !
! WAVEWATCH III - end of namelist                                      !
! -------------------------------------------------------------------- !
