$ WAVEWATCH III multi-scale input file
$ ------------------------------------
  3 0 F 1 F F
$
 'Michi'  'no' 'no' 'no' 'no' 'no' 'no' 'no' 'no' 'no' 1  1  0.00   0.30   F
 'Huron'  'no' 'no' 'no' 'no' 'no' 'no' 'no' 'no' 'no' 1  1  0.30   0.65   F 
 'Super'  'no' 'no' 'no' 'no' 'no' 'no' 'no' 'no' 'no' 1  1  0.65   1.00   F
$
$ Starting and ending times for the entire model run
   20160809 000000   20160809 060000
$
  F F
$
$ Output time and variables for all grids.
   20160809 000000   3600  20160809 060000
     N
     HS FP DP 
$
$ Point output time and point list
   20160809 000000    900  20160810 000000
$ Michi sub-grid 2D points, total 2.
   -86.409    45.344    'B45002' 
   -87.026    42.674    'B45007'
$ Huron sub-grid 2D points, total 2.
   -82.840    45.351    'B45003'
   -82.416    44.283    'B45008'
$ Super sub-grid 2D points, total 2.
   -87.777    48.064    'B45001' 
   -86.585    47.585    'B45004'
$
       0.0    0.0   'STOPSTRING'
$
$ Track output
   20160809 000000      0  20160809 000000
$
$ Restart files
   20160809 000000      0  20160809 000000
$
$ Boundary output
   20160809 000000      0  20160809 000000
$
$ Separated wave field data
   20160809 000000      0  20160809 000000
$
  'the_end'  0
$
  'STP'
$ 
$ End of input file. 
