! -------------------------------------------------------------------- !
! WAVEWATCH III ww3_ounf.nml - Grid output post-processing             !
! -------------------------------------------------------------------- !

! -------------------------------------------------------------------- !
! Define the output fields to postprocess via FIELD_NML namelist
! -------------------------------------------------------------------- !
&FIELD_NML
  FIELD%TIMESTART        =  '20080522 000000'
  FIELD%TIMESTRIDE       =  '3600'
  FIELD%TIMECOUNT        =  '999'
  FIELD%LIST             =  'HS FP DIR SPR'
  FIELD%PARTITION        =  '0 1 2'
  FIELD%SAMEFILE         =  F
  FIELD%TYPE             =  2
/

! -------------------------------------------------------------------- !
! Define the content of the output file via FILE_NML namelist
! -------------------------------------------------------------------- !
&FILE_NML
/

! -------------------------------------------------------------------- !
! WAVEWATCH III - end of namelist                                      !
! -------------------------------------------------------------------- !
