$ WAVEWATCH III Grid output post-processing
$ -----------------------------------------
  19680606 000000  3600. 49
$
  N
  DPT HS TP DP
$
  0 999 0 999  F T
$
$ (1) Forcing Fields
$ F
$ (2) Standard mean wave Parameters
$ T
$ HS  LM  TZ  TE  TM  FP  DIR SPR DP
$ T   F   F   F   F   F   F   F   F
$ (3) Frequency-dependent parameters
$ F
$ (4) Spectral Partition Parameters
$ F
$ (5) Atmosphere-waves layer
$ F
$ (6) Wave-Ocean layer
$ F
$ (7) Wave-bottom layer
$ F
$ (8) Spectrum parameters
$ F
$ (9) Numerical diagnostics
$ F
$ (10) User defined
$ F
$
