$ WAVEWATCH III shell input file
$ ------------------------------
   F T
   F T
   F T
   F F
   F F
   F F
   F
   F
   F
$
   19680606 000000
   19680606 120000
$
   1
$
   19680606 000000    600  19680608 000000
$
   N
   DPT HS FP DP PT01 PT02 MSS MSC
$
   19680606 000000    600  19680608 000000
       200.E3 400.E3  'point_A'
         0.E3   0.E3  'STOPSTRING'
   19680606 000000      0  19680608 000000
   19680606 000000      0  19680608 000000
   19680606 000000      0  19680608 000000
   19680606 000000      0  19680608 000000
