$ WAVEWATCH III multi-scale input file
$ ------------------------------------
  6 0 F 1 F F
 'low1'  'no' 'no' 'no' 'no' 'no' 'no' 'no'  1  1  0.00 1.00  F
 'low2'  'no' 'no' 'no' 'no' 'no' 'no' 'no'  1  1  0.00 1.00  F
 'low3'  'no' 'no' 'no' 'no' 'no' 'no' 'no'  1  1  0.00 1.00  F
 'hgh1'  'no' 'no' 'no' 'no' 'no' 'no' 'no'  2  1  0.00 1.00  F
 'hgh2'  'no' 'no' 'no' 'no' 'no' 'no' 'no'  2  1  0.00 1.00  F
 'hgh3'  'no' 'no' 'no' 'no' 'no' 'no' 'no'  2  1  0.00 1.00  F
$
   19680606 000000   19680606 120000
$
  T T
$
   19680606 000000    600  19680608 000000
     N
     DPT HS FP DP
   19680606 000000    600  19680608 000000
     200.E3 400.E3  'point_A'
       0.E3   0.E3  'STOPSTRING'
   19680606 000000      0  19680608 000000
   19680606 001000      1  19680606 001000
   19680606 000000      0  19680608 000000
   19680606 000000      0  19680608 000000
$
  'the_end'  0
$
  'STP'
$
$ End of input file
